BindingDB_50280917_3D

Vconf v2.1
 49 52  0  0  0  0  0  0  0  0999 V2000
   -4.9990    2.1150    0.2690 C   0  0  0  0  0  0  0  0  0  0  0
   -4.9200    0.7200    0.0640 C   0  0  0  0  0  0  0  0  0  0  0
   -3.6720    0.0650    0.0780 C   0  0  0  0  0  0  0  0  0  0  0
   -3.8320    2.8740    0.4910 C   0  0  0  0  0  0  0  0  0  0  0
   -2.5960    2.2060    0.5020 C   0  0  0  0  0  0  0  0  0  0  0
   -2.5160    0.8310    0.3000 C   0  0  0  0  0  0  0  0  0  0  0
   -1.2250    0.4360    0.3570 O   0  0  0  0  0  0  0  0  0  0  0
   -0.4760    1.5430    0.5990 C   0  0  0  0  0  0  0  0  0  0  0
   -1.3020    2.6710    0.6920 C   0  0  0  0  0  0  0  0  0  0  0
    0.9910    1.4880    0.7210 C   0  0  0  0  0  0  0  0  0  0  0
    1.4050    0.5380    1.7160 N   0  0  0  0  0  0  0  0  0  0  0
    1.2970    0.7600    3.0720 C   0  0  0  0  0  0  0  0  0  0  0
    1.9600   -0.6830    1.2130 C   0  0  0  0  0  0  0  0  0  0  0
    0.7990    1.9620    3.6210 C   0  0  0  0  0  0  0  0  0  0  0
    1.6660   -0.1410    3.8610 O   0  0  0  0  0  0  0  0  0  0  0
    0.6830    2.1900    4.9980 C   0  0  0  0  0  0  0  0  0  0  0
    0.1850    3.3770    5.5930 C   0  0  0  0  0  0  0  0  0  0  0
    0.1250    3.4610    7.0000 C   0  0  0  0  0  0  0  0  0  0  0
   -0.3480    4.5770    7.6060 N   0  0  0  0  0  0  0  0  0  0  0
   -0.2640    4.5010    4.8630 C   0  0  0  0  0  0  0  0  0  0  0
   -0.7540    5.6480    5.5140 C   0  0  0  0  0  0  0  0  0  0  0
   -0.7850    5.6600    6.9200 C   0  0  0  0  0  0  0  0  0  0  0
   -1.2390    6.7240    7.6150 N   0  0  0  0  0  0  0  0  0  0  0
   -1.7020    7.8480    7.0310 C   0  0  0  0  0  0  0  0  0  0  0
   -1.7540    8.0110    5.5690 C   0  0  0  0  0  0  0  0  0  0  0
   -1.2220    6.8130    4.7390 C   0  0  0  0  0  0  0  0  0  0  0
   -2.1050    8.7780    7.7630 O   0  0  0  0  0  0  0  0  0  0  0
   -0.9250    4.0710    0.9300 C   0  0  0  0  0  0  0  0  0  0  0
   -5.9080    2.5780    0.2560 H   0  0  0  0  0  0  0  0  0  0  0
   -5.7720    0.1820   -0.0940 H   0  0  0  0  0  0  0  0  0  0  0
   -3.6080   -0.9420   -0.0700 H   0  0  0  0  0  0  0  0  0  0  0
   -3.8860    3.8820    0.6400 H   0  0  0  0  0  0  0  0  0  0  0
    1.3730    1.1850   -0.2550 H   0  0  0  0  0  0  0  0  0  0  0
    1.4160    2.4680    0.9390 H   0  0  0  0  0  0  0  0  0  0  0
    2.2500   -1.3790    2.0020 H   0  0  0  0  0  0  0  0  0  0  0
    1.2240   -1.1750    0.5770 H   0  0  0  0  0  0  0  0  0  0  0
    2.8450   -0.4560    0.6180 H   0  0  0  0  0  0  0  0  0  0  0
    0.5150    2.6970    2.9790 H   0  0  0  0  0  0  0  0  0  0  0
    0.9790    1.4370    5.6240 H   0  0  0  0  0  0  0  0  0  0  0
    0.4370    2.6800    7.5810 H   0  0  0  0  0  0  0  0  0  0  0
   -0.2400    4.5000    3.8440 H   0  0  0  0  0  0  0  0  0  0  0
   -1.2340    6.6770    8.5820 H   0  0  0  0  0  0  0  0  0  0  0
   -1.1740    8.8960    5.3070 H   0  0  0  0  0  0  0  0  0  0  0
   -2.7920    8.1920    5.2880 H   0  0  0  0  0  0  0  0  0  0  0
   -0.3950    7.1690    4.1220 H   0  0  0  0  0  0  0  0  0  0  0
   -2.0210    6.4830    4.0720 H   0  0  0  0  0  0  0  0  0  0  0
    0.1500    4.1770    1.0620 H   0  0  0  0  0  0  0  0  0  0  0
   -1.2360    4.6790    0.0800 H   0  0  0  0  0  0  0  0  0  0  0
   -1.4280    4.4330    1.8280 H   0  0  0  0  0  0  0  0  0  0  0
  1  2  2  0  0  0  0
  1  4  1  0  0  0  0
  1 29  1  0  0  0  0
  2  3  1  0  0  0  0
  2 30  1  0  0  0  0
  3  6  2  0  0  0  0
  3 31  1  0  0  0  0
  4  5  2  0  0  0  0
  4 32  1  0  0  0  0
  5  6  1  0  0  0  0
  5  9  1  0  0  0  0
  6  7  1  0  0  0  0
  7  8  1  0  0  0  0
  8  9  2  0  0  0  0
  8 10  1  0  0  0  0
  9 28  1  0  0  0  0
 10 11  1  0  0  0  0
 10 33  1  0  0  0  0
 10 34  1  0  0  0  0
 11 12  1  0  0  0  0
 11 13  1  0  0  0  0
 12 14  1  0  0  0  0
 12 15  2  0  0  0  0
 13 35  1  0  0  0  0
 13 36  1  0  0  0  0
 13 37  1  0  0  0  0
 14 16  2  0  0  0  0
 14 38  1  0  0  0  0
 16 17  1  0  0  0  0
 16 39  1  0  0  0  0
 17 18  2  0  0  0  0
 17 20  1  0  0  0  0
 18 19  1  0  0  0  0
 18 40  1  0  0  0  0
 19 22  2  0  0  0  0
 20 21  2  0  0  0  0
 20 41  1  0  0  0  0
 21 22  1  0  0  0  0
 21 26  1  0  0  0  0
 22 23  1  0  0  0  0
 23 24  1  0  0  0  0
 23 42  1  0  0  0  0
 24 25  1  0  0  0  0
 24 27  2  0  0  0  0
 25 26  1  0  0  0  0
 25 43  1  0  0  0  0
 25 44  1  0  0  0  0
 26 45  1  0  0  0  0
 26 46  1  0  0  0  0
 28 47  1  0  0  0  0
 28 48  1  0  0  0  0
 28 49  1  0  0  0  0
M  END
> <From>
www.bindingDB.org

> <BindingDB Reactant_set_id>
50280917

> <Ligand InChI>
InChI=1S/C22H21N3O3/c1-14-17-5-3-4-6-18(17)28-19(14)13-25(2)21(27)10-7-15-11-16-8-9-20(26)24-22(16)23-12-15/h3-7,10-12H,8-9,13H2,1-2H3,(H,23,24,26)/b10-7+

> <Ligand InChI Key>
QXTWSUQCXCWEHF-JXMROGBWSA-N

> <BindingDB MonomerID>
50052244

> <BindingDB Ligand Name>
CHEMBL1652621

> <Target Name>
Enoyl-[acyl-carrier-protein] reductase [NADPH] FabI [9-251]

> <Target Source Organism According to Curator or DataSource>
Staphylococcus aureus

> <Ki (nM)>


> <IC50 (nM)>
 29

> <Kd (nM)>


> <EC50 (nM)>


> <kon (M-1-s-1)>


> <koff (s-1)>


> <pH>


> <Temp C>


> <Curation/DataSource>
ChEMBL

> <Article DOI>
10.1016/j.ejmech.2014.07.036

> <BindingDB Entry DOI>
10.7270/Q2CJ8G45

> <PMID>
25036796

> <PubChem AID>


> <Patent Number>


> <Authors>
Takhi, M; Sreenivas, K; Reddy, CK; Munikumar, M; Praveena, K; Sudheer, P; Rao, BN; Ramakanth, G; Sivaranjani, J; Mulik, S; Reddy, YR; Narasimha Rao, K; Pallavi, R; Lakshminarasimhan, A; Panigrahi, SK; Antony, T; Abdullah, I; Lee, YK; Ramachandra, M; Yusof, R; Rahman, NA; Subramanya, H

> <Institution>
Aurigene Discovery Technologies Ltd

> <Link to Ligand in BindingDB>
http://www.bindingdb.org/bind/chemsearch/marvin/MolStructure.jsp?monomerid=50052244

> <Link to Ligand-Target Pair in BindingDB>
http://www.bindingdb.org/jsp/dbsearch/PrimarySearch_ki.jsp?energyterm=kJ/mole&tag=pol&polymerid=50004708&target=Enoyl-%5Bacyl-carrier-protein%5D+reductase+%5BNADPH%5D+FabI+%5B9-251%5D&column=ki&startPg=0&Increment=50&submit=Search

> <Link to Ligand-Target Pair in BindingDB>
http://www.bindingdb.org/jsp/dbsearch/PrimarySearch_ki.jsp?energyterm=kJ/mole&tag=r21&monomerid=50052244&enzyme=Enoyl-%5Bacyl-carrier-protein%5D+reductase+%5BNADPH%5D+FabI+%5B9-251%5D&column=ki&startPg=0&Increment=50&submit=Search

> <Ligand HET ID in PDB>


> <PDB ID(s) for Ligand-Target Complex>


> <PubChem CID of Ligand>
10407120

> <PubChem SID of Ligand>
103949140

> <ChEBI ID of Ligand>


> <ChEMBL ID of Ligand>
CHEMBL1652621

> <DrugBank ID of Ligand>


> <IUPHAR_GRAC ID of Ligand>


> <KEGG ID of Ligand>


> <ZINC ID of Ligand>
ZINC13757016

> <Number of Protein Chains in Target (bigger than 1 implies a multichain complex)>
1

> <BindingDB Target Chain Sequence>
YVIMGIANKRSIAFGVAKVLDQLGAKLVFTYRKERSRKELEKLLEQLNQPEAHLYQIDVQSDEEVINGFEQIGKDVGNIDGVYHSIAFANMEDLRGRFSETSREGFLLAQDISSYSLTIVAHEAKKLMPEGGSIVATTYLGGEFAVQNYNVMGVAKASLEANVKYLALDLGPDNIRVNAISAGPIRTLSAKGVGGFNTILKEIEERAPLKRNVDQVEVGKTAAYLLSDLSSGVTGENIHVDSG

> <PDB ID(s) of Target Chain>
3GNS,3GNT,3GR6,4ALI,4ALJ,4ALK,4ALL,4ALM,4ALN,4BNF,4BNG,4BNH,4BNI,4BNJ,4BNK,4BNL,4BNM,4BNN,4CUZ,4CV0,4CV1,4D41,4D42,4D43,4D44,4D45,4FS3,4NZ9,6TBB,6TBC,6YUR

> <UniProt (SwissProt) Recommended Name of Target Chain>
Enoyl-[acyl-carrier-protein] reductase [NADPH] FabI

> <UniProt (SwissProt) Entry Name of Target Chain>
FABI_STAAR

> <UniProt (SwissProt) Primary ID of Target Chain>
Q6GI75

> <UniProt (SwissProt) Secondary ID(s) of Target Chain>


> <UniProt (SwissProt) Alternative ID(s) of Target Chain>


> <UniProt (TrEMBL) Submitted Name of Target Chain>


> <UniProt (TrEMBL) Entry Name of Target Chain>


> <UniProt (TrEMBL) Primary ID of Target Chain>


> <UniProt (TrEMBL) Secondary ID(s) of Target Chain>


> <UniProt (TrEMBL) Alternative ID(s) of Target Chain>


$$$$
19

Vconf v2.0 Academic SN VC001-00000579
 34 36  0  0  0  0  0  0  0  0999 V2000
   -3.0040    3.1120    0.8700 C   0  0  0  0  0  0  0  0  0  0  0
   -4.2370    2.4430    0.7960 C   0  0  0  0  0  0  0  0  0  0  0
   -4.3080    1.0600    0.5040 C   0  0  0  0  0  0  0  0  0  0  0
   -3.0880    0.3730    0.2930 C   0  0  0  0  0  0  0  0  0  0  0
   -1.8530    1.0390    0.3660 C   0  0  0  0  0  0  0  0  0  0  0
   -1.8010    2.4200    0.6430 C   0  0  0  0  0  0  0  0  0  0  0
   -2.9790    4.4320    1.1550 O   0  0  0  0  0  0  0  0  0  0  0
   -0.6330    3.1280    0.7500 O   0  0  0  0  0  0  0  0  0  0  0
    0.5170    2.8700    0.0480 C   0  0  0  0  0  0  0  0  0  0  0
    1.7660    2.9670    0.7010 C   0  0  0  0  0  0  0  0  0  0  0
    0.4850    2.5620   -1.3290 C   0  0  0  0  0  0  0  0  0  0  0
    1.6740    2.3260   -2.0390 C   0  0  0  0  0  0  0  0  0  0  0
    2.9140    2.4090   -1.3810 C   0  0  0  0  0  0  0  0  0  0  0
    2.9570    2.7320   -0.0120 C   0  0  0  0  0  0  0  0  0  0  0
    1.8630    3.3590    2.3470 Cl  0  0  0  0  0  0  0  0  0  0  0
   -5.5630    0.3800    0.4300 C   0  0  0  0  0  0  0  0  0  0  0
   -6.6520    0.7580    1.2540 C   0  0  0  0  0  0  0  0  0  0  0
   -7.8860    0.0900    1.1840 C   0  0  0  0  0  0  0  0  0  0  0
   -8.0600   -0.9740    0.2860 C   0  0  0  0  0  0  0  0  0  0  0
   -6.9960   -1.3670   -0.5420 C   0  0  0  0  0  0  0  0  0  0  0
   -5.7630   -0.6960   -0.4690 C   0  0  0  0  0  0  0  0  0  0  0
    4.3480    2.1260   -2.2340 Cl  0  0  0  0  0  0  0  0  0  0  0
   -9.2040   -1.5950    0.2200 F   0  0  0  0  0  0  0  0  0  0  0
   -5.0900    2.9840    0.9490 H   0  0  0  0  0  0  0  0  0  0  0
   -3.0840   -0.6290    0.0980 H   0  0  0  0  0  0  0  0  0  0  0
   -0.9910    0.5130    0.2240 H   0  0  0  0  0  0  0  0  0  0  0
   -2.0770    4.8150    1.1900 H   0  0  0  0  0  0  0  0  0  0  0
   -0.4080    2.5110   -1.8200 H   0  0  0  0  0  0  0  0  0  0  0
    1.6280    2.1000   -3.0340 H   0  0  0  0  0  0  0  0  0  0  0
    3.8590    2.7980    0.4650 H   0  0  0  0  0  0  0  0  0  0  0
   -6.5530    1.5200    1.9260 H   0  0  0  0  0  0  0  0  0  0  0
   -8.6540    0.3800    1.7910 H   0  0  0  0  0  0  0  0  0  0  0
   -7.1160   -2.1380   -1.1990 H   0  0  0  0  0  0  0  0  0  0  0
   -5.0130   -0.9970   -1.0920 H   0  0  0  0  0  0  0  0  0  0  0
  1  2  2  0  0  0  0
  1  6  1  0  0  0  0
  1  7  1  0  0  0  0
  2  3  1  0  0  0  0
  2 24  1  0  0  0  0
  3  4  2  0  0  0  0
  3 16  1  0  0  0  0
  4  5  1  0  0  0  0
  4 25  1  0  0  0  0
  5  6  2  0  0  0  0
  5 26  1  0  0  0  0
  6  8  1  0  0  0  0
  7 27  1  0  0  0  0
  8  9  1  0  0  0  0
  9 10  2  0  0  0  0
  9 11  1  0  0  0  0
 10 14  1  0  0  0  0
 10 15  1  0  0  0  0
 11 12  2  0  0  0  0
 11 28  1  0  0  0  0
 12 13  1  0  0  0  0
 12 29  1  0  0  0  0
 13 14  2  0  0  0  0
 13 22  1  0  0  0  0
 14 30  1  0  0  0  0
 16 17  1  0  0  0  0
 16 21  2  0  0  0  0
 17 18  2  0  0  0  0
 17 31  1  0  0  0  0
 18 19  1  0  0  0  0
 18 32  1  0  0  0  0
 19 20  2  0  0  0  0
 19 23  1  0  0  0  0
 20 21  1  0  0  0  0
 20 33  1  0  0  0  0
 21 34  1  0  0  0  0
M  END
> <From>
www.bindingDB.org

> <BindingDB Reactant_set_id>
46071

> <Ligand InChI>
InChI=1S/C18H11Cl2FO2/c19-13-4-8-17(15(20)10-13)23-18-7-3-12(9-16(18)22)11-1-5-14(21)6-2-11/h1-10,22H

> <Ligand InChI Key>
LFNMTUYVBXAAKI-UHFFFAOYSA-N

> <BindingDB MonomerID>
25418

> <BindingDB Ligand Name>
2-(2,4-dichlorophenoxy)-5-(4-fluorophenyl)phenol::Triclosan derivative, 19

> <Target Name>
Enoyl-ACP reductase

> <Target Source Organism According to Curator or DataSource>
Plasmodium falciparum

> <Ki (nM)>


> <IC50 (nM)>
 38

> <Kd (nM)>


> <EC50 (nM)>


> <kon (M-1-s-1)>


> <koff (s-1)>


> <pH>
7.9

> <Temp C>
25.00

> <Curation/DataSource>
Curated from the literature by BindingDB

> <Article DOI>
10.1074/jbc.M701813200

> <BindingDB Entry DOI>
10.7270/Q22V2DFD

> <PMID>
17567585

> <PubChem AID>
aid1798551

> <Patent Number>


> <Authors>
Freundlich, JS; Wang, F; Tsai, HC; Kuo, M; Shieh, HM; Anderson, JW; Nkrumah, LJ; Valderramos, JC; Yu, M; Kumar, TR; Valderramos, SG; Jacobs, WR; Schiehser, GA; Jacobus, DP; Fidock, DA; Sacchettini, JC

> <Institution>
Jacobus Pharmaceutical Company

> <Link to Ligand in BindingDB>
http://www.bindingdb.org/bind/chemsearch/marvin/MolStructure.jsp?monomerid=25418

> <Link to Ligand-Target Pair in BindingDB>
http://www.bindingdb.org/jsp/dbsearch/PrimarySearch_ki.jsp?energyterm=kJ/mole&tag=pol&polymerid=2820&target=Enoyl-ACP+reductase&column=ki&startPg=0&Increment=50&submit=Search

> <Link to Ligand-Target Pair in BindingDB>
http://www.bindingdb.org/jsp/dbsearch/PrimarySearch_ki.jsp?energyterm=kJ/mole&tag=r21&monomerid=25418&enzyme=Enoyl-ACP+reductase&column=ki&startPg=0&Increment=50&submit=Search

> <Ligand HET ID in PDB>


> <PDB ID(s) for Ligand-Target Complex>


> <PubChem CID of Ligand>
25023968

> <PubChem SID of Ligand>
56374557

> <ChEBI ID of Ligand>


> <ChEMBL ID of Ligand>


> <DrugBank ID of Ligand>


> <IUPHAR_GRAC ID of Ligand>


> <KEGG ID of Ligand>


> <ZINC ID of Ligand>
ZINC29061114

> <Number of Protein Chains in Target (bigger than 1 implies a multichain complex)>
1

> <BindingDB Target Chain Sequence>
MNKISQRLLFLFLHFYTTVCFIQNNTQKTFHNVLQNEQIRGKEKAFYRKEKRENIFIGNK
MKHVHNMNNTHNNNHYMEKEEQDASNINKIKEENKNEDICFIAGIGDTNGYGWGIAKELS
KRNVKIIFGIWPPVYNIFMKNYKNGKFDNDMIIDKDKKMNILDMLPFDASFDTANDIDEE
TKNNKRYNMLQNYTIEDVANLIHQKYGKINMLVHSLANAKEVQKDLLNTSRKGYLDALSK
SSYSLISLCKYFVNIMKPQSSIISLTYHASQKVVPGYGGGMSSAKAALESDTRVLAYHLG
RNYNIRINTISAGPLKSRAATAINKLNNTYENNTNQNKNRNRHDVHNIMNNSGEKEEKKI
SASQNYTFIDYAIEYSEKYAPLRQKLLSTDIGSVASFLLSRESRAITGQTIYVDNGLNIM
FLPDDIYRNENE

> <PDB ID(s) of Target Chain>
1NHG,1NHW,1NNU,1UH5,1V35,2FOI,2NQ8,3LSY,3LT0,3LT1,3LT2,3LT4

> <UniProt (SwissProt) Recommended Name of Target Chain>


> <UniProt (SwissProt) Entry Name of Target Chain>


> <UniProt (SwissProt) Primary ID of Target Chain>


> <UniProt (SwissProt) Secondary ID(s) of Target Chain>


> <UniProt (SwissProt) Alternative ID(s) of Target Chain>


> <UniProt (TrEMBL) Submitted Name of Target Chain>
Enoyl-ACP reductase

> <UniProt (TrEMBL) Entry Name of Target Chain>
Q9BJJ9_PLAFA

> <UniProt (TrEMBL) Primary ID of Target Chain>
Q9BJJ9

> <UniProt (TrEMBL) Secondary ID(s) of Target Chain>


> <UniProt (TrEMBL) Alternative ID(s) of Target Chain>


$$$$
4

Vconf v2.0 Academic SN VC001-00000579
 25 26  0  0  0  0  0  0  0  0999 V2000
   -2.9830    3.1520    1.1050 C   0  0  0  0  0  0  0  0  0  0  0
   -4.2590    2.5630    1.0700 C   0  0  0  0  0  0  0  0  0  0  0
   -4.4010    1.2020    0.7360 C   0  0  0  0  0  0  0  0  0  0  0
   -3.2560    0.4360    0.4410 C   0  0  0  0  0  0  0  0  0  0  0
   -1.9820    1.0290    0.4780 C   0  0  0  0  0  0  0  0  0  0  0
   -1.8360    2.3960    0.7990 C   0  0  0  0  0  0  0  0  0  0  0
   -2.8630    4.4580    1.4320 O   0  0  0  0  0  0  0  0  0  0  0
   -0.6220    3.0270    0.8750 O   0  0  0  0  0  0  0  0  0  0  0
    0.4720    2.7190    0.1100 C   0  0  0  0  0  0  0  0  0  0  0
    1.7460    2.6330    0.7150 C   0  0  0  0  0  0  0  0  0  0  0
    0.3590    2.5350   -1.2850 C   0  0  0  0  0  0  0  0  0  0  0
    1.4910    2.2470   -2.0630 C   0  0  0  0  0  0  0  0  0  0  0
    2.7560    2.1480   -1.4560 C   0  0  0  0  0  0  0  0  0  0  0
    2.8810    2.3430   -0.0680 C   0  0  0  0  0  0  0  0  0  0  0
    1.9390    2.8670    2.3810 Cl  0  0  0  0  0  0  0  0  0  0  0
    4.1220    1.8020   -2.3920 Cl  0  0  0  0  0  0  0  0  0  0  0
   -5.5800    0.6550    0.7050 C   0  0  0  0  0  0  0  0  0  0  0
   -6.6210    0.1710    0.6770 N   0  0  0  0  0  0  0  0  0  0  0
   -5.0770    3.1350    1.2920 H   0  0  0  0  0  0  0  0  0  0  0
   -3.3360   -0.5550    0.2020 H   0  0  0  0  0  0  0  0  0  0  0
   -1.1590    0.4610    0.2740 H   0  0  0  0  0  0  0  0  0  0  0
   -1.9370    4.7830    1.4360 H   0  0  0  0  0  0  0  0  0  0  0
   -0.5530    2.6160   -1.7360 H   0  0  0  0  0  0  0  0  0  0  0
    1.3870    2.1140   -3.0710 H   0  0  0  0  0  0  0  0  0  0  0
    3.8010    2.2750    0.3730 H   0  0  0  0  0  0  0  0  0  0  0
  1  2  2  0  0  0  0
  1  6  1  0  0  0  0
  1  7  1  0  0  0  0
  2  3  1  0  0  0  0
  2 19  1  0  0  0  0
  3  4  2  0  0  0  0
  3 17  1  0  0  0  0
  4  5  1  0  0  0  0
  4 20  1  0  0  0  0
  5  6  2  0  0  0  0
  5 21  1  0  0  0  0
  6  8  1  0  0  0  0
  7 22  1  0  0  0  0
  8  9  1  0  0  0  0
  9 10  2  0  0  0  0
  9 11  1  0  0  0  0
 10 14  1  0  0  0  0
 10 15  1  0  0  0  0
 11 12  2  0  0  0  0
 11 23  1  0  0  0  0
 12 13  1  0  0  0  0
 12 24  1  0  0  0  0
 13 14  2  0  0  0  0
 13 16  1  0  0  0  0
 14 25  1  0  0  0  0
 17 18  3  0  0  0  0
M  END
> <From>
www.bindingDB.org

> <BindingDB Reactant_set_id>
46056

> <Ligand InChI>
InChI=1S/C13H7Cl2NO2/c14-9-2-4-12(10(15)6-9)18-13-3-1-8(7-16)5-11(13)17/h1-6,17H

> <Ligand InChI Key>
QYLRCMQANMWAOJ-UHFFFAOYSA-N

> <BindingDB MonomerID>
25403

> <BindingDB Ligand Name>
4&#8208;(2,4&#8208;dichlorophenoxy)&#8208;3&#8208;hydroxybenzonitrile (19)::4-(2,4-dichlorophenoxy)-3-hydroxybenzonitrile::Triclosan derivative, 4

> <Target Name>
Enoyl-ACP reductase

> <Target Source Organism According to Curator or DataSource>
Plasmodium falciparum

> <Ki (nM)>


> <IC50 (nM)>
 49

> <Kd (nM)>


> <EC50 (nM)>


> <kon (M-1-s-1)>


> <koff (s-1)>


> <pH>
7.9

> <Temp C>
25.00

> <Curation/DataSource>
Curated from the literature by BindingDB

> <Article DOI>
10.1074/jbc.M701813200

> <BindingDB Entry DOI>
10.7270/Q22V2DFD

> <PMID>
17567585

> <PubChem AID>
aid1798551

> <Patent Number>


> <Authors>
Freundlich, JS; Wang, F; Tsai, HC; Kuo, M; Shieh, HM; Anderson, JW; Nkrumah, LJ; Valderramos, JC; Yu, M; Kumar, TR; Valderramos, SG; Jacobs, WR; Schiehser, GA; Jacobus, DP; Fidock, DA; Sacchettini, JC

> <Institution>
Jacobus Pharmaceutical Company

> <Link to Ligand in BindingDB>
http://www.bindingdb.org/bind/chemsearch/marvin/MolStructure.jsp?monomerid=25403

> <Link to Ligand-Target Pair in BindingDB>
http://www.bindingdb.org/jsp/dbsearch/PrimarySearch_ki.jsp?energyterm=kJ/mole&tag=pol&polymerid=2820&target=Enoyl-ACP+reductase&column=ki&startPg=0&Increment=50&submit=Search

> <Link to Ligand-Target Pair in BindingDB>
http://www.bindingdb.org/jsp/dbsearch/PrimarySearch_ki.jsp?energyterm=kJ/mole&tag=r21&monomerid=25403&enzyme=Enoyl-ACP+reductase&column=ki&startPg=0&Increment=50&submit=Search

> <Ligand HET ID in PDB>


> <PDB ID(s) for Ligand-Target Complex>


> <PubChem CID of Ligand>
25023955

> <PubChem SID of Ligand>
56374542

> <ChEBI ID of Ligand>


> <ChEMBL ID of Ligand>


> <DrugBank ID of Ligand>


> <IUPHAR_GRAC ID of Ligand>


> <KEGG ID of Ligand>


> <ZINC ID of Ligand>
ZINC29059641

> <Number of Protein Chains in Target (bigger than 1 implies a multichain complex)>
1

> <BindingDB Target Chain Sequence>
MNKISQRLLFLFLHFYTTVCFIQNNTQKTFHNVLQNEQIRGKEKAFYRKEKRENIFIGNK
MKHVHNMNNTHNNNHYMEKEEQDASNINKIKEENKNEDICFIAGIGDTNGYGWGIAKELS
KRNVKIIFGIWPPVYNIFMKNYKNGKFDNDMIIDKDKKMNILDMLPFDASFDTANDIDEE
TKNNKRYNMLQNYTIEDVANLIHQKYGKINMLVHSLANAKEVQKDLLNTSRKGYLDALSK
SSYSLISLCKYFVNIMKPQSSIISLTYHASQKVVPGYGGGMSSAKAALESDTRVLAYHLG
RNYNIRINTISAGPLKSRAATAINKLNNTYENNTNQNKNRNRHDVHNIMNNSGEKEEKKI
SASQNYTFIDYAIEYSEKYAPLRQKLLSTDIGSVASFLLSRESRAITGQTIYVDNGLNIM
FLPDDIYRNENE

> <PDB ID(s) of Target Chain>
1NHG,1NHW,1NNU,1UH5,1V35,2FOI,2NQ8,3LSY,3LT0,3LT1,3LT2,3LT4

> <UniProt (SwissProt) Recommended Name of Target Chain>


> <UniProt (SwissProt) Entry Name of Target Chain>


> <UniProt (SwissProt) Primary ID of Target Chain>


> <UniProt (SwissProt) Secondary ID(s) of Target Chain>


> <UniProt (SwissProt) Alternative ID(s) of Target Chain>


> <UniProt (TrEMBL) Submitted Name of Target Chain>
Enoyl-ACP reductase

> <UniProt (TrEMBL) Entry Name of Target Chain>
Q9BJJ9_PLAFA

> <UniProt (TrEMBL) Primary ID of Target Chain>
Q9BJJ9

> <UniProt (TrEMBL) Secondary ID(s) of Target Chain>


> <UniProt (TrEMBL) Alternative ID(s) of Target Chain>


$$$$
BindingDB_50280912_3D

Vconf v2.1
 68 73  0  0  0  0  0  0  0  0999 V2000
    5.8570   -6.3950    0.4550 C   0  0  0  0  0  0  0  0  0  0  0
    6.2580   -7.6190   -0.1230 C   0  0  0  0  0  0  0  0  0  0  0
    7.2400   -8.3640    0.4420 N   0  0  0  0  0  0  0  0  0  0  0
    6.5190   -5.9930    1.6380 C   0  0  0  0  0  0  0  0  0  0  0
    4.8290   -5.6490   -0.1740 C   0  0  0  0  0  0  0  0  0  0  0
    4.3290   -4.4190    0.2720 C   0  0  0  0  0  0  0  0  0  0  0
    3.3070   -3.7230   -0.3900 C   0  0  0  0  0  0  0  0  0  0  0
    2.6740   -4.2120   -1.5370 N   0  0  0  0  0  0  0  0  0  0  0
    2.9470   -2.6100    0.0520 O   0  0  0  0  0  0  0  0  0  0  0
    1.7570   -5.3280   -1.7550 C   0  0  0  0  0  0  0  0  0  0  0
    1.7040   -4.8760   -3.2250 C   0  0  0  0  0  0  0  0  0  0  0
    2.6610   -3.7140   -2.9080 C   0  0  0  0  0  0  0  0  0  0  0
    2.1400   -5.8280   -4.2560 C   0  0  0  0  0  0  0  0  0  0  0
    2.2890   -5.5340   -5.6120 C   0  0  0  0  0  0  0  0  0  0  0
    2.4600   -7.1260   -4.0160 O   0  0  0  0  0  0  0  0  0  0  0
    2.8130   -7.6690   -5.2030 C   0  0  0  0  0  0  0  0  0  0  0
    2.7190   -6.7110   -6.2110 C   0  0  0  0  0  0  0  0  0  0  0
    3.0340   -7.0240   -7.5440 C   0  0  0  0  0  0  0  0  0  0  0
    3.4490   -8.3380   -7.8420 C   0  0  0  0  0  0  0  0  0  0  0
    3.5450   -9.3090   -6.8210 C   0  0  0  0  0  0  0  0  0  0  0
    3.2270   -8.9800   -5.4880 C   0  0  0  0  0  0  0  0  0  0  0
    2.0380   -4.2350   -6.2510 C   0  0  0  0  0  0  0  0  0  0  0
    7.5340   -6.7840    2.2050 C   0  0  0  0  0  0  0  0  0  0  0
    7.8840   -7.9900    1.5730 C   0  0  0  0  0  0  0  0  0  0  0
    8.8550   -8.7770    2.0830 N   0  0  0  0  0  0  0  0  0  0  0
    9.5360   -8.4550    3.2050 C   0  0  0  0  0  0  0  0  0  0  0
    9.2630   -7.2970    3.8820 N   0  0  0  0  0  0  0  0  0  0  0
    8.2420   -6.3860    3.4380 C   0  0  0  0  0  0  0  0  0  0  0
   10.4160   -9.2500    3.6030 O   0  0  0  0  0  0  0  0  0  0  0
    9.9940   -6.9540    5.0620 C   0  0  0  0  0  0  0  0  0  0  0
   11.4410   -6.5390    4.7320 C   0  0  0  0  0  0  0  0  0  0  0
   11.4770   -5.4540    3.7280 N   0  0  0  0  0  0  0  0  0  0  0
   12.8270   -5.3570    3.1370 C   0  0  0  0  0  0  0  0  0  0  0
   12.8520   -4.2550    2.0680 C   0  0  0  0  0  0  0  0  0  0  0
   12.4200   -3.0250    2.6440 O   0  0  0  0  0  0  0  0  0  0  0
   11.1350   -3.0580    3.2590 C   0  0  0  0  0  0  0  0  0  0  0
   11.1110   -4.1550    4.3320 C   0  0  0  0  0  0  0  0  0  0  0
    5.8140   -7.9600   -0.9780 H   0  0  0  0  0  0  0  0  0  0  0
    6.2720   -5.1180    2.1010 H   0  0  0  0  0  0  0  0  0  0  0
    4.4220   -6.0380   -1.0280 H   0  0  0  0  0  0  0  0  0  0  0
    4.7210   -3.9890    1.1090 H   0  0  0  0  0  0  0  0  0  0  0
    0.8120   -5.2450   -1.2180 H   0  0  0  0  0  0  0  0  0  0  0
    2.1700   -6.3170   -1.5530 H   0  0  0  0  0  0  0  0  0  0  0
    0.7090   -4.5400   -3.5190 H   0  0  0  0  0  0  0  0  0  0  0
    2.2320   -2.7180   -3.0260 H   0  0  0  0  0  0  0  0  0  0  0
    3.6350   -3.7250   -3.4000 H   0  0  0  0  0  0  0  0  0  0  0
    2.9640   -6.3220   -8.2810 H   0  0  0  0  0  0  0  0  0  0  0
    3.6830   -8.5880   -8.8030 H   0  0  0  0  0  0  0  0  0  0  0
    3.8480  -10.2560   -7.0510 H   0  0  0  0  0  0  0  0  0  0  0
    3.2950   -9.6770   -4.7470 H   0  0  0  0  0  0  0  0  0  0  0
    2.2290   -4.2880   -7.3230 H   0  0  0  0  0  0  0  0  0  0  0
    1.0000   -3.9460   -6.0890 H   0  0  0  0  0  0  0  0  0  0  0
    2.6930   -3.4820   -5.8120 H   0  0  0  0  0  0  0  0  0  0  0
    9.0740   -9.6040    1.6270 H   0  0  0  0  0  0  0  0  0  0  0
    8.7060   -5.4150    3.2630 H   0  0  0  0  0  0  0  0  0  0  0
    7.5060   -6.2800    4.2370 H   0  0  0  0  0  0  0  0  0  0  0
    9.5050   -6.1270    5.5780 H   0  0  0  0  0  0  0  0  0  0  0
   10.0130   -7.8040    5.7470 H   0  0  0  0  0  0  0  0  0  0  0
   11.9430   -6.2230    5.6470 H   0  0  0  0  0  0  0  0  0  0  0
   11.9630   -7.4140    4.3420 H   0  0  0  0  0  0  0  0  0  0  0
   13.5610   -5.1240    3.9110 H   0  0  0  0  0  0  0  0  0  0  0
   13.0930   -6.3050    2.6670 H   0  0  0  0  0  0  0  0  0  0  0
   13.8660   -4.1400    1.6850 H   0  0  0  0  0  0  0  0  0  0  0
   12.1870   -4.5290    1.2470 H   0  0  0  0  0  0  0  0  0  0  0
   10.9290   -2.0920    3.7200 H   0  0  0  0  0  0  0  0  0  0  0
   10.3720   -3.2670    2.5070 H   0  0  0  0  0  0  0  0  0  0  0
   11.8160   -3.8960    5.1240 H   0  0  0  0  0  0  0  0  0  0  0
   10.1070   -4.2010    4.7530 H   0  0  0  0  0  0  0  0  0  0  0
  1  2  2  0  0  0  0
  1  4  1  0  0  0  0
  1  5  1  0  0  0  0
  2  3  1  0  0  0  0
  2 38  1  0  0  0  0
  3 24  2  0  0  0  0
  4 23  2  0  0  0  0
  4 39  1  0  0  0  0
  5  6  2  0  0  0  0
  5 40  1  0  0  0  0
  6  7  1  0  0  0  0
  6 41  1  0  0  0  0
  7  8  1  0  0  0  0
  7  9  2  0  0  0  0
  8 10  1  0  0  0  0
  8 12  1  0  0  0  0
 10 11  1  0  0  0  0
 10 42  1  0  0  0  0
 10 43  1  0  0  0  0
 11 12  1  0  0  0  0
 11 13  1  0  0  0  0
 11 44  1  0  0  0  0
 12 45  1  0  0  0  0
 12 46  1  0  0  0  0
 13 14  2  0  0  0  0
 13 15  1  0  0  0  0
 14 17  1  0  0  0  0
 14 22  1  0  0  0  0
 15 16  1  0  0  0  0
 16 17  2  0  0  0  0
 16 21  1  0  0  0  0
 17 18  1  0  0  0  0
 18 19  2  0  0  0  0
 18 47  1  0  0  0  0
 19 20  1  0  0  0  0
 19 48  1  0  0  0  0
 20 21  2  0  0  0  0
 20 49  1  0  0  0  0
 21 50  1  0  0  0  0
 22 51  1  0  0  0  0
 22 52  1  0  0  0  0
 22 53  1  0  0  0  0
 23 24  1  0  0  0  0
 23 28  1  0  0  0  0
 24 25  1  0  0  0  0
 25 26  1  0  0  0  0
 25 54  1  0  0  0  0
 26 27  1  0  0  0  0
 26 29  2  0  0  0  0
 27 28  1  0  0  0  0
 27 30  1  0  0  0  0
 28 55  1  0  0  0  0
 28 56  1  0  0  0  0
 30 31  1  0  0  0  0
 30 57  1  0  0  0  0
 30 58  1  0  0  0  0
 31 32  1  0  0  0  0
 31 59  1  0  0  0  0
 31 60  1  0  0  0  0
 32 33  1  0  0  0  0
 32 37  1  0  0  0  0
 33 34  1  0  0  0  0
 33 61  1  0  0  0  0
 33 62  1  0  0  0  0
 34 35  1  0  0  0  0
 34 63  1  0  0  0  0
 34 64  1  0  0  0  0
 35 36  1  0  0  0  0
 36 37  1  0  0  0  0
 36 65  1  0  0  0  0
 36 66  1  0  0  0  0
 37 67  1  0  0  0  0
 37 68  1  0  0  0  0
M  END
> <From>
www.bindingDB.org

> <BindingDB Reactant_set_id>
50280912

> <Ligand InChI>
InChI=1S/C28H31N5O4/c1-19-23-4-2-3-5-24(23)37-26(19)22-17-33(18-22)25(34)7-6-20-14-21-16-32(28(35)30-27(21)29-15-20)9-8-31-10-12-36-13-11-31/h2-7,14-15,22H,8-13,16-18H2,1H3,(H,29,30,35)/b7-6+

> <Ligand InChI Key>
HIJSSOAUKDKOJQ-VOTSOKGWSA-N

> <BindingDB MonomerID>
50052239

> <BindingDB Ligand Name>
CHEMBL3322726

> <Target Name>
Enoyl-[acyl-carrier-protein] reductase [NADPH] FabI [9-251]

> <Target Source Organism According to Curator or DataSource>
Staphylococcus aureus

> <Ki (nM)>


> <IC50 (nM)>
 58

> <Kd (nM)>


> <EC50 (nM)>


> <kon (M-1-s-1)>


> <koff (s-1)>


> <pH>


> <Temp C>


> <Curation/DataSource>
ChEMBL

> <Article DOI>
10.1016/j.ejmech.2014.07.036

> <BindingDB Entry DOI>
10.7270/Q2CJ8G45

> <PMID>
25036796

> <PubChem AID>


> <Patent Number>


> <Authors>
Takhi, M; Sreenivas, K; Reddy, CK; Munikumar, M; Praveena, K; Sudheer, P; Rao, BN; Ramakanth, G; Sivaranjani, J; Mulik, S; Reddy, YR; Narasimha Rao, K; Pallavi, R; Lakshminarasimhan, A; Panigrahi, SK; Antony, T; Abdullah, I; Lee, YK; Ramachandra, M; Yusof, R; Rahman, NA; Subramanya, H

> <Institution>
Aurigene Discovery Technologies Ltd

> <Link to Ligand in BindingDB>
http://www.bindingdb.org/bind/chemsearch/marvin/MolStructure.jsp?monomerid=50052239

> <Link to Ligand-Target Pair in BindingDB>
http://www.bindingdb.org/jsp/dbsearch/PrimarySearch_ki.jsp?energyterm=kJ/mole&tag=pol&polymerid=50004708&target=Enoyl-%5Bacyl-carrier-protein%5D+reductase+%5BNADPH%5D+FabI+%5B9-251%5D&column=ki&startPg=0&Increment=50&submit=Search

> <Link to Ligand-Target Pair in BindingDB>
http://www.bindingdb.org/jsp/dbsearch/PrimarySearch_ki.jsp?energyterm=kJ/mole&tag=r21&monomerid=50052239&enzyme=Enoyl-%5Bacyl-carrier-protein%5D+reductase+%5BNADPH%5D+FabI+%5B9-251%5D&column=ki&startPg=0&Increment=50&submit=Search

> <Ligand HET ID in PDB>


> <PDB ID(s) for Ligand-Target Complex>


> <PubChem CID of Ligand>
118710291

> <PubChem SID of Ligand>
103949135

> <ChEBI ID of Ligand>


> <ChEMBL ID of Ligand>
CHEMBL3322726

> <DrugBank ID of Ligand>


> <IUPHAR_GRAC ID of Ligand>


> <KEGG ID of Ligand>


> <ZINC ID of Ligand>
ZINC13756979

> <Number of Protein Chains in Target (bigger than 1 implies a multichain complex)>
1

> <BindingDB Target Chain Sequence>
YVIMGIANKRSIAFGVAKVLDQLGAKLVFTYRKERSRKELEKLLEQLNQPEAHLYQIDVQSDEEVINGFEQIGKDVGNIDGVYHSIAFANMEDLRGRFSETSREGFLLAQDISSYSLTIVAHEAKKLMPEGGSIVATTYLGGEFAVQNYNVMGVAKASLEANVKYLALDLGPDNIRVNAISAGPIRTLSAKGVGGFNTILKEIEERAPLKRNVDQVEVGKTAAYLLSDLSSGVTGENIHVDSG

> <PDB ID(s) of Target Chain>
3GNS,3GNT,3GR6,4ALI,4ALJ,4ALK,4ALL,4ALM,4ALN,4BNF,4BNG,4BNH,4BNI,4BNJ,4BNK,4BNL,4BNM,4BNN,4CUZ,4CV0,4CV1,4D41,4D42,4D43,4D44,4D45,4FS3,4NZ9,6TBB,6TBC,6YUR

> <UniProt (SwissProt) Recommended Name of Target Chain>
Enoyl-[acyl-carrier-protein] reductase [NADPH] FabI

> <UniProt (SwissProt) Entry Name of Target Chain>
FABI_STAAR

> <UniProt (SwissProt) Primary ID of Target Chain>
Q6GI75

> <UniProt (SwissProt) Secondary ID(s) of Target Chain>


> <UniProt (SwissProt) Alternative ID(s) of Target Chain>


> <UniProt (TrEMBL) Submitted Name of Target Chain>


> <UniProt (TrEMBL) Entry Name of Target Chain>


> <UniProt (TrEMBL) Primary ID of Target Chain>


> <UniProt (TrEMBL) Secondary ID(s) of Target Chain>


> <UniProt (TrEMBL) Alternative ID(s) of Target Chain>


$$$$
20

Vconf v2.0 Academic SN VC001-00000579
 37 39  0  0  0  0  0  0  0  0999 V2000
   -3.0440    3.4090    0.3950 C   0  0  0  0  0  0  0  0  0  0  0
   -4.3140    2.8160    0.3020 C   0  0  0  0  0  0  0  0  0  0  0
   -4.4480    1.4120    0.2720 C   0  0  0  0  0  0  0  0  0  0  0
   -3.2880    0.6150    0.3320 C   0  0  0  0  0  0  0  0  0  0  0
   -2.0180    1.2080    0.4260 C   0  0  0  0  0  0  0  0  0  0  0
   -1.8840    2.6130    0.4460 C   0  0  0  0  0  0  0  0  0  0  0
   -2.9400    4.7560    0.4290 O   0  0  0  0  0  0  0  0  0  0  0
   -0.6790    3.2570    0.5540 O   0  0  0  0  0  0  0  0  0  0  0
    0.5110    2.7710    0.0800 C   0  0  0  0  0  0  0  0  0  0  0
    1.6610    2.8150    0.8980 C   0  0  0  0  0  0  0  0  0  0  0
    0.6190    2.2660   -1.2330 C   0  0  0  0  0  0  0  0  0  0  0
    1.8470    1.7870   -1.7170 C   0  0  0  0  0  0  0  0  0  0  0
    2.9880    1.8190   -0.8950 C   0  0  0  0  0  0  0  0  0  0  0
    2.8930    2.3350    0.4110 C   0  0  0  0  0  0  0  0  0  0  0
    1.5880    3.4310    2.4750 Cl  0  0  0  0  0  0  0  0  0  0  0
   -5.7860    0.7890    0.1680 C   0  0  0  0  0  0  0  0  0  0  0
    4.4680    1.2400   -1.4740 Cl  0  0  0  0  0  0  0  0  0  0  0
   -6.6220    1.0220    1.3670 C   0  0  0  0  0  0  0  0  0  0  0
   -7.0570    0.6740    3.7490 C   0  0  0  0  0  0  0  0  0  0  0
   -8.2240    1.4490    3.6530 C   0  0  0  0  0  0  0  0  0  0  0
   -8.5960    2.0090    2.4200 C   0  0  0  0  0  0  0  0  0  0  0
   -7.7990    1.7950    1.2820 C   0  0  0  0  0  0  0  0  0  0  0
   -6.2600    0.4600    2.6100 C   0  0  0  0  0  0  0  0  0  0  0
   -5.1440    3.4080    0.2590 H   0  0  0  0  0  0  0  0  0  0  0
   -3.3650   -0.4030    0.3140 H   0  0  0  0  0  0  0  0  0  0  0
   -1.1900    0.6140    0.4820 H   0  0  0  0  0  0  0  0  0  0  0
   -2.0170    5.0810    0.4960 H   0  0  0  0  0  0  0  0  0  0  0
   -0.2010    2.2470   -1.8400 H   0  0  0  0  0  0  0  0  0  0  0
    1.9030    1.4210   -2.6690 H   0  0  0  0  0  0  0  0  0  0  0
    3.7230    2.3620    1.0070 H   0  0  0  0  0  0  0  0  0  0  0
   -6.2770    1.1890   -0.7220 H   0  0  0  0  0  0  0  0  0  0  0
   -5.6920   -0.2900    0.0270 H   0  0  0  0  0  0  0  0  0  0  0
   -6.7860    0.2660    4.6440 H   0  0  0  0  0  0  0  0  0  0  0
   -8.8030    1.6030    4.4790 H   0  0  0  0  0  0  0  0  0  0  0
   -9.4440    2.5710    2.3500 H   0  0  0  0  0  0  0  0  0  0  0
   -8.0760    2.2070    0.3910 H   0  0  0  0  0  0  0  0  0  0  0
   -5.4150   -0.1060    2.6880 H   0  0  0  0  0  0  0  0  0  0  0
  1  2  2  0  0  0  0
  1  6  1  0  0  0  0
  1  7  1  0  0  0  0
  2  3  1  0  0  0  0
  2 24  1  0  0  0  0
  3  4  2  0  0  0  0
  3 16  1  0  0  0  0
  4  5  1  0  0  0  0
  4 25  1  0  0  0  0
  5  6  2  0  0  0  0
  5 26  1  0  0  0  0
  6  8  1  0  0  0  0
  7 27  1  0  0  0  0
  8  9  1  0  0  0  0
  9 10  2  0  0  0  0
  9 11  1  0  0  0  0
 10 14  1  0  0  0  0
 10 15  1  0  0  0  0
 11 12  2  0  0  0  0
 11 28  1  0  0  0  0
 12 13  1  0  0  0  0
 12 29  1  0  0  0  0
 13 14  2  0  0  0  0
 13 17  1  0  0  0  0
 14 30  1  0  0  0  0
 16 18  1  0  0  0  0
 16 31  1  0  0  0  0
 16 32  1  0  0  0  0
 18 22  2  0  0  0  0
 18 23  1  0  0  0  0
 19 20  1  0  0  0  0
 19 23  2  0  0  0  0
 19 33  1  0  0  0  0
 20 21  2  0  0  0  0
 20 34  1  0  0  0  0
 21 22  1  0  0  0  0
 21 35  1  0  0  0  0
 22 36  1  0  0  0  0
 23 37  1  0  0  0  0
M  END
> <From>
www.bindingDB.org

> <BindingDB Reactant_set_id>
46072

> <Ligand InChI>
InChI=1S/C19H14Cl2O2/c20-15-7-9-18(16(21)12-15)23-19-8-6-14(11-17(19)22)10-13-4-2-1-3-5-13/h1-9,11-12,22H,10H2

> <Ligand InChI Key>
LUMKUDPYQGEIPU-UHFFFAOYSA-N

> <BindingDB MonomerID>
25419

> <BindingDB Ligand Name>
5-benzyl-2-(2,4-dichlorophenoxy)phenol::Triclosan derivative, 20

> <Target Name>
Enoyl-ACP reductase

> <Target Source Organism According to Curator or DataSource>
Plasmodium falciparum

> <Ki (nM)>


> <IC50 (nM)>
 71

> <Kd (nM)>


> <EC50 (nM)>


> <kon (M-1-s-1)>


> <koff (s-1)>


> <pH>
7.9

> <Temp C>
25.00

> <Curation/DataSource>
Curated from the literature by BindingDB

> <Article DOI>
10.1074/jbc.M701813200

> <BindingDB Entry DOI>
10.7270/Q22V2DFD

> <PMID>
17567585

> <PubChem AID>
aid1798551

> <Patent Number>


> <Authors>
Freundlich, JS; Wang, F; Tsai, HC; Kuo, M; Shieh, HM; Anderson, JW; Nkrumah, LJ; Valderramos, JC; Yu, M; Kumar, TR; Valderramos, SG; Jacobs, WR; Schiehser, GA; Jacobus, DP; Fidock, DA; Sacchettini, JC

> <Institution>
Jacobus Pharmaceutical Company

> <Link to Ligand in BindingDB>
http://www.bindingdb.org/bind/chemsearch/marvin/MolStructure.jsp?monomerid=25419

> <Link to Ligand-Target Pair in BindingDB>
http://www.bindingdb.org/jsp/dbsearch/PrimarySearch_ki.jsp?energyterm=kJ/mole&tag=pol&polymerid=2820&target=Enoyl-ACP+reductase&column=ki&startPg=0&Increment=50&submit=Search

> <Link to Ligand-Target Pair in BindingDB>
http://www.bindingdb.org/jsp/dbsearch/PrimarySearch_ki.jsp?energyterm=kJ/mole&tag=r21&monomerid=25419&enzyme=Enoyl-ACP+reductase&column=ki&startPg=0&Increment=50&submit=Search

> <Ligand HET ID in PDB>
JPM

> <PDB ID(s) for Ligand-Target Complex>
3FNF

> <PubChem CID of Ligand>
25023969

> <PubChem SID of Ligand>
56374558

> <ChEBI ID of Ligand>


> <ChEMBL ID of Ligand>


> <DrugBank ID of Ligand>


> <IUPHAR_GRAC ID of Ligand>


> <KEGG ID of Ligand>


> <ZINC ID of Ligand>
ZINC29061009

> <Number of Protein Chains in Target (bigger than 1 implies a multichain complex)>
1

> <BindingDB Target Chain Sequence>
MNKISQRLLFLFLHFYTTVCFIQNNTQKTFHNVLQNEQIRGKEKAFYRKEKRENIFIGNK
MKHVHNMNNTHNNNHYMEKEEQDASNINKIKEENKNEDICFIAGIGDTNGYGWGIAKELS
KRNVKIIFGIWPPVYNIFMKNYKNGKFDNDMIIDKDKKMNILDMLPFDASFDTANDIDEE
TKNNKRYNMLQNYTIEDVANLIHQKYGKINMLVHSLANAKEVQKDLLNTSRKGYLDALSK
SSYSLISLCKYFVNIMKPQSSIISLTYHASQKVVPGYGGGMSSAKAALESDTRVLAYHLG
RNYNIRINTISAGPLKSRAATAINKLNNTYENNTNQNKNRNRHDVHNIMNNSGEKEEKKI
SASQNYTFIDYAIEYSEKYAPLRQKLLSTDIGSVASFLLSRESRAITGQTIYVDNGLNIM
FLPDDIYRNENE

> <PDB ID(s) of Target Chain>
1NHG,1NHW,1NNU,1UH5,1V35,2FOI,2NQ8,3LSY,3LT0,3LT1,3LT2,3LT4

> <UniProt (SwissProt) Recommended Name of Target Chain>


> <UniProt (SwissProt) Entry Name of Target Chain>


> <UniProt (SwissProt) Primary ID of Target Chain>


> <UniProt (SwissProt) Secondary ID(s) of Target Chain>


> <UniProt (SwissProt) Alternative ID(s) of Target Chain>


> <UniProt (TrEMBL) Submitted Name of Target Chain>
Enoyl-ACP reductase

> <UniProt (TrEMBL) Entry Name of Target Chain>
Q9BJJ9_PLAFA

> <UniProt (TrEMBL) Primary ID of Target Chain>
Q9BJJ9

> <UniProt (TrEMBL) Secondary ID(s) of Target Chain>


> <UniProt (TrEMBL) Alternative ID(s) of Target Chain>


$$$$
Triclosan

Vconf v2.0 Academic SN VC001-00000579
 24 25  0  0  0  0  0  0  0  0999 V2000
   -0.6720    1.6050    0.1830 C   0  0  0  0  0  0  0  0  0  0  0
   -1.8600    0.9890   -0.2480 C   0  0  0  0  0  0  0  0  0  0  0
   -2.2830   -0.2180    0.3410 C   0  0  0  0  0  0  0  0  0  0  0
   -1.5080   -0.8050    1.3590 C   0  0  0  0  0  0  0  0  0  0  0
   -0.3220   -0.1860    1.7880 C   0  0  0  0  0  0  0  0  0  0  0
    0.0990    1.0310    1.2110 C   0  0  0  0  0  0  0  0  0  0  0
   -0.2750    2.7600   -0.3940 O   0  0  0  0  0  0  0  0  0  0  0
   -3.7110   -0.9610   -0.1770 Cl  0  0  0  0  0  0  0  0  0  0  0
    1.2550    1.6720    1.5730 O   0  0  0  0  0  0  0  0  0  0  0
    1.7630    1.7180    2.8460 C   0  0  0  0  0  0  0  0  0  0  0
    3.1580    1.6120    3.0410 C   0  0  0  0  0  0  0  0  0  0  0
    0.9270    1.9230    3.9650 C   0  0  0  0  0  0  0  0  0  0  0
    1.4670    1.9970    5.2590 C   0  0  0  0  0  0  0  0  0  0  0
    2.8550    1.8780    5.4510 C   0  0  0  0  0  0  0  0  0  0  0
    3.6980    1.6880    4.3400 C   0  0  0  0  0  0  0  0  0  0  0
    4.2090    1.3890    1.7310 Cl  0  0  0  0  0  0  0  0  0  0  0
    3.5060    1.9710    7.0090 Cl  0  0  0  0  0  0  0  0  0  0  0
   -2.4100    1.4240   -0.9900 H   0  0  0  0  0  0  0  0  0  0  0
   -1.8000   -1.6840    1.7910 H   0  0  0  0  0  0  0  0  0  0  0
    0.2370   -0.6260    2.5190 H   0  0  0  0  0  0  0  0  0  0  0
    0.5670    3.1140   -0.0370 H   0  0  0  0  0  0  0  0  0  0  0
   -0.0800    2.0240    3.8370 H   0  0  0  0  0  0  0  0  0  0  0
    0.8430    2.1430    6.0550 H   0  0  0  0  0  0  0  0  0  0  0
    4.7080    1.6060    4.4790 H   0  0  0  0  0  0  0  0  0  0  0
  1  2  2  0  0  0  0
  1  6  1  0  0  0  0
  1  7  1  0  0  0  0
  2  3  1  0  0  0  0
  2 18  1  0  0  0  0
  3  4  2  0  0  0  0
  3  8  1  0  0  0  0
  4  5  1  0  0  0  0
  4 19  1  0  0  0  0
  5  6  2  0  0  0  0
  5 20  1  0  0  0  0
  6  9  1  0  0  0  0
  7 21  1  0  0  0  0
  9 10  1  0  0  0  0
 10 11  2  0  0  0  0
 10 12  1  0  0  0  0
 11 15  1  0  0  0  0
 11 16  1  0  0  0  0
 12 13  2  0  0  0  0
 12 22  1  0  0  0  0
 13 14  1  0  0  0  0
 13 23  1  0  0  0  0
 14 15  2  0  0  0  0
 14 17  1  0  0  0  0
 15 24  1  0  0  0  0
M  END
> <From>
www.bindingDB.org

> <BindingDB Reactant_set_id>
46053

> <Ligand InChI>
InChI=1S/C12H7Cl3O2/c13-7-1-3-11(9(15)5-7)17-12-4-2-8(14)6-10(12)16/h1-6,16H

> <Ligand InChI Key>
XEFQLINVKFYRCS-UHFFFAOYSA-N

> <BindingDB MonomerID>
8726

> <BindingDB Ligand Name>
5-chloro-2-(2,4-dichlorophenoxy)phenol::CHEMBL849::TCL::Triclosan

> <Target Name>
Enoyl-ACP reductase

> <Target Source Organism According to Curator or DataSource>
Plasmodium falciparum

> <Ki (nM)>


> <IC50 (nM)>
 73

> <Kd (nM)>


> <EC50 (nM)>


> <kon (M-1-s-1)>


> <koff (s-1)>


> <pH>
7.9

> <Temp C>
25.00

> <Curation/DataSource>
Curated from the literature by BindingDB

> <Article DOI>
10.1074/jbc.M701813200

> <BindingDB Entry DOI>
10.7270/Q22V2DFD

> <PMID>
17567585

> <PubChem AID>
aid1798551

> <Patent Number>


> <Authors>
Freundlich, JS; Wang, F; Tsai, HC; Kuo, M; Shieh, HM; Anderson, JW; Nkrumah, LJ; Valderramos, JC; Yu, M; Kumar, TR; Valderramos, SG; Jacobs, WR; Schiehser, GA; Jacobus, DP; Fidock, DA; Sacchettini, JC

> <Institution>
Jacobus Pharmaceutical Company

> <Link to Ligand in BindingDB>
http://www.bindingdb.org/bind/chemsearch/marvin/MolStructure.jsp?monomerid=8726

> <Link to Ligand-Target Pair in BindingDB>
http://www.bindingdb.org/jsp/dbsearch/PrimarySearch_ki.jsp?energyterm=kJ/mole&tag=pol&polymerid=2820&target=Enoyl-ACP+reductase&column=ki&startPg=0&Increment=50&submit=Search

> <Link to Ligand-Target Pair in BindingDB>
http://www.bindingdb.org/jsp/dbsearch/PrimarySearch_ki.jsp?energyterm=kJ/mole&tag=r21&monomerid=8726&enzyme=Enoyl-ACP+reductase&column=ki&startPg=0&Increment=50&submit=Search

> <Ligand HET ID in PDB>
TCL

> <PDB ID(s) for Ligand-Target Complex>
2O2S,4M89,1UH5,4NR0,3PJF,3PJE,3PJD,6AH9,2O2Y,5YCS,1P45,3OID,3OIF,1QSG,2B35,2QIO,3P9T,3NRC,3GR6,2WYW,1NHG,5IFL,3AM3,3AM5,1D8A,1QG6,1D7O,3F4B,4W9N,2PD3,1C14,7FCM,4ALL,4ALI

> <PubChem CID of Ligand>
5564

> <PubChem SID of Ligand>
11109466

> <ChEBI ID of Ligand>
164200

> <ChEMBL ID of Ligand>
CHEMBL849

> <DrugBank ID of Ligand>
DB08604

> <IUPHAR_GRAC ID of Ligand>


> <KEGG ID of Ligand>
C12059

> <ZINC ID of Ligand>
ZINC00002216

> <Number of Protein Chains in Target (bigger than 1 implies a multichain complex)>
1

> <BindingDB Target Chain Sequence>
MNKISQRLLFLFLHFYTTVCFIQNNTQKTFHNVLQNEQIRGKEKAFYRKEKRENIFIGNK
MKHVHNMNNTHNNNHYMEKEEQDASNINKIKEENKNEDICFIAGIGDTNGYGWGIAKELS
KRNVKIIFGIWPPVYNIFMKNYKNGKFDNDMIIDKDKKMNILDMLPFDASFDTANDIDEE
TKNNKRYNMLQNYTIEDVANLIHQKYGKINMLVHSLANAKEVQKDLLNTSRKGYLDALSK
SSYSLISLCKYFVNIMKPQSSIISLTYHASQKVVPGYGGGMSSAKAALESDTRVLAYHLG
RNYNIRINTISAGPLKSRAATAINKLNNTYENNTNQNKNRNRHDVHNIMNNSGEKEEKKI
SASQNYTFIDYAIEYSEKYAPLRQKLLSTDIGSVASFLLSRESRAITGQTIYVDNGLNIM
FLPDDIYRNENE

> <PDB ID(s) of Target Chain>
1NHG,1NHW,1NNU,1UH5,1V35,2FOI,2NQ8,3LSY,3LT0,3LT1,3LT2,3LT4

> <UniProt (SwissProt) Recommended Name of Target Chain>


> <UniProt (SwissProt) Entry Name of Target Chain>


> <UniProt (SwissProt) Primary ID of Target Chain>


> <UniProt (SwissProt) Secondary ID(s) of Target Chain>


> <UniProt (SwissProt) Alternative ID(s) of Target Chain>


> <UniProt (TrEMBL) Submitted Name of Target Chain>
Enoyl-ACP reductase

> <UniProt (TrEMBL) Entry Name of Target Chain>
Q9BJJ9_PLAFA

> <UniProt (TrEMBL) Primary ID of Target Chain>
Q9BJJ9

> <UniProt (TrEMBL) Secondary ID(s) of Target Chain>


> <UniProt (TrEMBL) Alternative ID(s) of Target Chain>


$$$$
21

Vconf v2.0 Academic SN VC001-00000579
 40 42  0  0  0  0  0  0  0  0999 V2000
   -2.9890    3.0930    0.7630 C   0  0  0  0  0  0  0  0  0  0  0
   -4.1800    2.3500    0.6870 C   0  0  0  0  0  0  0  0  0  0  0
   -4.1410    0.9570    0.4810 C   0  0  0  0  0  0  0  0  0  0  0
   -2.8910    0.3170    0.3630 C   0  0  0  0  0  0  0  0  0  0  0
   -1.7010    1.0590    0.4390 C   0  0  0  0  0  0  0  0  0  0  0
   -1.7410    2.4570    0.6270 C   0  0  0  0  0  0  0  0  0  0  0
   -3.0500    4.4280    0.9630 O   0  0  0  0  0  0  0  0  0  0  0
   -0.6180    3.2360    0.7290 O   0  0  0  0  0  0  0  0  0  0  0
    0.5600    3.0080    0.0630 C   0  0  0  0  0  0  0  0  0  0  0
    1.7870    3.1790    0.7410 C   0  0  0  0  0  0  0  0  0  0  0
    0.5730    2.6570   -1.3040 C   0  0  0  0  0  0  0  0  0  0  0
    1.7860    2.4540   -1.9800 C   0  0  0  0  0  0  0  0  0  0  0
    3.0060    2.6090   -1.2980 C   0  0  0  0  0  0  0  0  0  0  0
    3.0040    2.9740    0.0610 C   0  0  0  0  0  0  0  0  0  0  0
    1.8280    3.6230    2.3750 Cl  0  0  0  0  0  0  0  0  0  0  0
   -5.3880    0.1710    0.3990 C   0  0  0  0  0  0  0  0  0  0  0
    4.4690    2.3640   -2.1110 Cl  0  0  0  0  0  0  0  0  0  0  0
   -5.5970   -0.4270   -1.0110 C   0  0  0  0  0  0  0  0  0  0  0
   -6.8790   -1.1530   -1.1130 C   0  0  0  0  0  0  0  0  0  0  0
   -9.3230   -2.5530   -1.3030 C   0  0  0  0  0  0  0  0  0  0  0
   -9.1220   -1.3830   -2.0550 C   0  0  0  0  0  0  0  0  0  0  0
   -7.9050   -0.6870   -1.9610 C   0  0  0  0  0  0  0  0  0  0  0
   -7.0890   -2.3290   -0.3640 C   0  0  0  0  0  0  0  0  0  0  0
   -8.3060   -3.0260   -0.4570 C   0  0  0  0  0  0  0  0  0  0  0
   -5.0770    2.8280    0.7810 H   0  0  0  0  0  0  0  0  0  0  0
   -2.8460   -0.6930    0.2240 H   0  0  0  0  0  0  0  0  0  0  0
   -0.8040    0.5790    0.3620 H   0  0  0  0  0  0  0  0  0  0  0
   -2.1720    4.8630    1.0060 H   0  0  0  0  0  0  0  0  0  0  0
   -0.3060    2.5520   -1.8110 H   0  0  0  0  0  0  0  0  0  0  0
    1.7730    2.1960   -2.9680 H   0  0  0  0  0  0  0  0  0  0  0
    3.8910    3.0920    0.5550 H   0  0  0  0  0  0  0  0  0  0  0
   -5.3450   -0.6310    1.1380 H   0  0  0  0  0  0  0  0  0  0  0
   -6.2460    0.8050    0.6360 H   0  0  0  0  0  0  0  0  0  0  0
   -5.5690    0.3860   -1.7400 H   0  0  0  0  0  0  0  0  0  0  0
   -4.7840   -1.1180   -1.2430 H   0  0  0  0  0  0  0  0  0  0  0
  -10.2060   -3.0580   -1.3720 H   0  0  0  0  0  0  0  0  0  0  0
   -9.8600   -1.0390   -2.6700 H   0  0  0  0  0  0  0  0  0  0  0
   -7.7690    0.1630   -2.5100 H   0  0  0  0  0  0  0  0  0  0  0
   -6.3540   -2.6800    0.2510 H   0  0  0  0  0  0  0  0  0  0  0
   -8.4500   -3.8750    0.0890 H   0  0  0  0  0  0  0  0  0  0  0
  1  2  2  0  0  0  0
  1  6  1  0  0  0  0
  1  7  1  0  0  0  0
  2  3  1  0  0  0  0
  2 25  1  0  0  0  0
  3  4  2  0  0  0  0
  3 16  1  0  0  0  0
  4  5  1  0  0  0  0
  4 26  1  0  0  0  0
  5  6  2  0  0  0  0
  5 27  1  0  0  0  0
  6  8  1  0  0  0  0
  7 28  1  0  0  0  0
  8  9  1  0  0  0  0
  9 10  2  0  0  0  0
  9 11  1  0  0  0  0
 10 14  1  0  0  0  0
 10 15  1  0  0  0  0
 11 12  2  0  0  0  0
 11 29  1  0  0  0  0
 12 13  1  0  0  0  0
 12 30  1  0  0  0  0
 13 14  2  0  0  0  0
 13 17  1  0  0  0  0
 14 31  1  0  0  0  0
 16 18  1  0  0  0  0
 16 32  1  0  0  0  0
 16 33  1  0  0  0  0
 18 19  1  0  0  0  0
 18 34  1  0  0  0  0
 18 35  1  0  0  0  0
 19 22  2  0  0  0  0
 19 23  1  0  0  0  0
 20 21  2  0  0  0  0
 20 24  1  0  0  0  0
 20 36  1  0  0  0  0
 21 22  1  0  0  0  0
 21 37  1  0  0  0  0
 22 38  1  0  0  0  0
 23 24  2  0  0  0  0
 23 39  1  0  0  0  0
 24 40  1  0  0  0  0
M  END
> <From>
www.bindingDB.org

> <BindingDB Reactant_set_id>
46073

> <Ligand InChI>
InChI=1S/C20H16Cl2O2/c21-16-9-11-19(17(22)13-16)24-20-10-8-15(12-18(20)23)7-6-14-4-2-1-3-5-14/h1-5,8-13,23H,6-7H2

> <Ligand InChI Key>
SOSAEWQXZFTNAQ-UHFFFAOYSA-N

> <BindingDB MonomerID>
25420

> <BindingDB Ligand Name>
2-(2,4-dichlorophenoxy)-5-(2-phenylethyl)phenol::Triclosan derivative, 21

> <Target Name>
Enoyl-ACP reductase

> <Target Source Organism According to Curator or DataSource>
Plasmodium falciparum

> <Ki (nM)>


> <IC50 (nM)>
 76

> <Kd (nM)>


> <EC50 (nM)>


> <kon (M-1-s-1)>


> <koff (s-1)>


> <pH>
7.9

> <Temp C>
25.00

> <Curation/DataSource>
Curated from the literature by BindingDB

> <Article DOI>
10.1074/jbc.M701813200

> <BindingDB Entry DOI>
10.7270/Q22V2DFD

> <PMID>
17567585

> <PubChem AID>
aid1798551

> <Patent Number>


> <Authors>
Freundlich, JS; Wang, F; Tsai, HC; Kuo, M; Shieh, HM; Anderson, JW; Nkrumah, LJ; Valderramos, JC; Yu, M; Kumar, TR; Valderramos, SG; Jacobs, WR; Schiehser, GA; Jacobus, DP; Fidock, DA; Sacchettini, JC

> <Institution>
Jacobus Pharmaceutical Company

> <Link to Ligand in BindingDB>
http://www.bindingdb.org/bind/chemsearch/marvin/MolStructure.jsp?monomerid=25420

> <Link to Ligand-Target Pair in BindingDB>
http://www.bindingdb.org/jsp/dbsearch/PrimarySearch_ki.jsp?energyterm=kJ/mole&tag=pol&polymerid=2820&target=Enoyl-ACP+reductase&column=ki&startPg=0&Increment=50&submit=Search

> <Link to Ligand-Target Pair in BindingDB>
http://www.bindingdb.org/jsp/dbsearch/PrimarySearch_ki.jsp?energyterm=kJ/mole&tag=r21&monomerid=25420&enzyme=Enoyl-ACP+reductase&column=ki&startPg=0&Increment=50&submit=Search

> <Ligand HET ID in PDB>
JPJ

> <PDB ID(s) for Ligand-Target Complex>
2OOS,3FNH

> <PubChem CID of Ligand>
16220128

> <PubChem SID of Ligand>
56374559

> <ChEBI ID of Ligand>


> <ChEMBL ID of Ligand>


> <DrugBank ID of Ligand>


> <IUPHAR_GRAC ID of Ligand>


> <KEGG ID of Ligand>


> <ZINC ID of Ligand>
ZINC16052312

> <Number of Protein Chains in Target (bigger than 1 implies a multichain complex)>
1

> <BindingDB Target Chain Sequence>
MNKISQRLLFLFLHFYTTVCFIQNNTQKTFHNVLQNEQIRGKEKAFYRKEKRENIFIGNK
MKHVHNMNNTHNNNHYMEKEEQDASNINKIKEENKNEDICFIAGIGDTNGYGWGIAKELS
KRNVKIIFGIWPPVYNIFMKNYKNGKFDNDMIIDKDKKMNILDMLPFDASFDTANDIDEE
TKNNKRYNMLQNYTIEDVANLIHQKYGKINMLVHSLANAKEVQKDLLNTSRKGYLDALSK
SSYSLISLCKYFVNIMKPQSSIISLTYHASQKVVPGYGGGMSSAKAALESDTRVLAYHLG
RNYNIRINTISAGPLKSRAATAINKLNNTYENNTNQNKNRNRHDVHNIMNNSGEKEEKKI
SASQNYTFIDYAIEYSEKYAPLRQKLLSTDIGSVASFLLSRESRAITGQTIYVDNGLNIM
FLPDDIYRNENE

> <PDB ID(s) of Target Chain>
1NHG,1NHW,1NNU,1UH5,1V35,2FOI,2NQ8,3LSY,3LT0,3LT1,3LT2,3LT4

> <UniProt (SwissProt) Recommended Name of Target Chain>


> <UniProt (SwissProt) Entry Name of Target Chain>


> <UniProt (SwissProt) Primary ID of Target Chain>


> <UniProt (SwissProt) Secondary ID(s) of Target Chain>


> <UniProt (SwissProt) Alternative ID(s) of Target Chain>


> <UniProt (TrEMBL) Submitted Name of Target Chain>
Enoyl-ACP reductase

> <UniProt (TrEMBL) Entry Name of Target Chain>
Q9BJJ9_PLAFA

> <UniProt (TrEMBL) Primary ID of Target Chain>
Q9BJJ9

> <UniProt (TrEMBL) Secondary ID(s) of Target Chain>


> <UniProt (TrEMBL) Alternative ID(s) of Target Chain>


$$$$
8

Vconf v2.0 Academic SN VC001-00000579
 30 31  0  0  0  0  0  0  0  0999 V2000
   -3.0350    3.2470    0.9860 C   0  0  0  0  0  0  0  0  0  0  0
   -4.2920    2.6220    0.9300 C   0  0  0  0  0  0  0  0  0  0  0
   -4.4000    1.2650    0.5670 C   0  0  0  0  0  0  0  0  0  0  0
   -3.2290    0.5430    0.2610 C   0  0  0  0  0  0  0  0  0  0  0
   -1.9720    1.1680    0.3160 C   0  0  0  0  0  0  0  0  0  0  0
   -1.8660    2.5310    0.6690 C   0  0  0  0  0  0  0  0  0  0  0
   -2.9550    4.5490    1.3430 O   0  0  0  0  0  0  0  0  0  0  0
   -0.6700    3.1950    0.7570 O   0  0  0  0  0  0  0  0  0  0  0
    0.4290    2.9250   -0.0160 C   0  0  0  0  0  0  0  0  0  0  0
    1.7020    2.8250    0.5870 C   0  0  0  0  0  0  0  0  0  0  0
    0.3170    2.7900   -1.4160 C   0  0  0  0  0  0  0  0  0  0  0
    1.4500    2.5310   -2.2030 C   0  0  0  0  0  0  0  0  0  0  0
    2.7150    2.4170   -1.5980 C   0  0  0  0  0  0  0  0  0  0  0
    2.8390    2.5660   -0.2040 C   0  0  0  0  0  0  0  0  0  0  0
    1.8920    3.0020    2.2610 Cl  0  0  0  0  0  0  0  0  0  0  0
    4.0820    2.1030   -2.5440 Cl  0  0  0  0  0  0  0  0  0  0  0
   -5.7250    0.6160    0.5030 C   0  0  0  0  0  0  0  0  0  0  0
   -6.3910    0.5240    1.8860 C   0  0  0  0  0  0  0  0  0  0  0
   -5.1310    3.1590    1.1540 H   0  0  0  0  0  0  0  0  0  0  0
   -3.2890   -0.4420    0.0010 H   0  0  0  0  0  0  0  0  0  0  0
   -1.1340    0.6280    0.1020 H   0  0  0  0  0  0  0  0  0  0  0
   -2.0390    4.8990    1.3620 H   0  0  0  0  0  0  0  0  0  0  0
   -0.5950    2.8800   -1.8640 H   0  0  0  0  0  0  0  0  0  0  0
    1.3470    2.4300   -3.2140 H   0  0  0  0  0  0  0  0  0  0  0
    3.7580    2.4870    0.2350 H   0  0  0  0  0  0  0  0  0  0  0
   -6.3720    1.1850   -0.1660 H   0  0  0  0  0  0  0  0  0  0  0
   -5.6340   -0.3970    0.1050 H   0  0  0  0  0  0  0  0  0  0  0
   -7.3450    0.0040    1.7890 H   0  0  0  0  0  0  0  0  0  0  0
   -5.7520   -0.0330    2.5730 H   0  0  0  0  0  0  0  0  0  0  0
   -6.5730    1.5210    2.2880 H   0  0  0  0  0  0  0  0  0  0  0
  1  2  2  0  0  0  0
  1  6  1  0  0  0  0
  1  7  1  0  0  0  0
  2  3  1  0  0  0  0
  2 19  1  0  0  0  0
  3  4  2  0  0  0  0
  3 17  1  0  0  0  0
  4  5  1  0  0  0  0
  4 20  1  0  0  0  0
  5  6  2  0  0  0  0
  5 21  1  0  0  0  0
  6  8  1  0  0  0  0
  7 22  1  0  0  0  0
  8  9  1  0  0  0  0
  9 10  2  0  0  0  0
  9 11  1  0  0  0  0
 10 14  1  0  0  0  0
 10 15  1  0  0  0  0
 11 12  2  0  0  0  0
 11 23  1  0  0  0  0
 12 13  1  0  0  0  0
 12 24  1  0  0  0  0
 13 14  2  0  0  0  0
 13 16  1  0  0  0  0
 14 25  1  0  0  0  0
 17 18  1  0  0  0  0
 17 26  1  0  0  0  0
 17 27  1  0  0  0  0
 18 28  1  0  0  0  0
 18 29  1  0  0  0  0
 18 30  1  0  0  0  0
M  END
> <From>
www.bindingDB.org

> <BindingDB Reactant_set_id>
46060

> <Ligand InChI>
InChI=1S/C14H12Cl2O2/c1-2-9-3-5-14(12(17)7-9)18-13-6-4-10(15)8-11(13)16/h3-8,17H,2H2,1H3

> <Ligand InChI Key>
UUSUFMSMUYHSBH-UHFFFAOYSA-N

> <BindingDB MonomerID>
25407

> <BindingDB Ligand Name>
2&#8208;(2,4&#8208;dichlorophenoxy)&#8208;5&#8208;ethylphenol (11)::2-(2,4-dichlorophenoxy)-5-ethylphenol::Triclosan derivative, 8

> <Target Name>
Enoyl-ACP reductase

> <Target Source Organism According to Curator or DataSource>
Plasmodium falciparum

> <Ki (nM)>


> <IC50 (nM)>
 110

> <Kd (nM)>


> <EC50 (nM)>


> <kon (M-1-s-1)>


> <koff (s-1)>


> <pH>
7.9

> <Temp C>
25.00

> <Curation/DataSource>
Curated from the literature by BindingDB

> <Article DOI>
10.1074/jbc.M701813200

> <BindingDB Entry DOI>
10.7270/Q22V2DFD

> <PMID>
17567585

> <PubChem AID>
aid1798551

> <Patent Number>


> <Authors>
Freundlich, JS; Wang, F; Tsai, HC; Kuo, M; Shieh, HM; Anderson, JW; Nkrumah, LJ; Valderramos, JC; Yu, M; Kumar, TR; Valderramos, SG; Jacobs, WR; Schiehser, GA; Jacobus, DP; Fidock, DA; Sacchettini, JC

> <Institution>
Jacobus Pharmaceutical Company

> <Link to Ligand in BindingDB>
http://www.bindingdb.org/bind/chemsearch/marvin/MolStructure.jsp?monomerid=25407

> <Link to Ligand-Target Pair in BindingDB>
http://www.bindingdb.org/jsp/dbsearch/PrimarySearch_ki.jsp?energyterm=kJ/mole&tag=pol&polymerid=2820&target=Enoyl-ACP+reductase&column=ki&startPg=0&Increment=50&submit=Search

> <Link to Ligand-Target Pair in BindingDB>
http://www.bindingdb.org/jsp/dbsearch/PrimarySearch_ki.jsp?energyterm=kJ/mole&tag=r21&monomerid=25407&enzyme=Enoyl-ACP+reductase&column=ki&startPg=0&Increment=50&submit=Search

> <Ligand HET ID in PDB>


> <PDB ID(s) for Ligand-Target Complex>


> <PubChem CID of Ligand>
25023958

> <PubChem SID of Ligand>
56374546

> <ChEBI ID of Ligand>


> <ChEMBL ID of Ligand>


> <DrugBank ID of Ligand>


> <IUPHAR_GRAC ID of Ligand>


> <KEGG ID of Ligand>


> <ZINC ID of Ligand>
ZINC29061561

> <Number of Protein Chains in Target (bigger than 1 implies a multichain complex)>
1

> <BindingDB Target Chain Sequence>
MNKISQRLLFLFLHFYTTVCFIQNNTQKTFHNVLQNEQIRGKEKAFYRKEKRENIFIGNK
MKHVHNMNNTHNNNHYMEKEEQDASNINKIKEENKNEDICFIAGIGDTNGYGWGIAKELS
KRNVKIIFGIWPPVYNIFMKNYKNGKFDNDMIIDKDKKMNILDMLPFDASFDTANDIDEE
TKNNKRYNMLQNYTIEDVANLIHQKYGKINMLVHSLANAKEVQKDLLNTSRKGYLDALSK
SSYSLISLCKYFVNIMKPQSSIISLTYHASQKVVPGYGGGMSSAKAALESDTRVLAYHLG
RNYNIRINTISAGPLKSRAATAINKLNNTYENNTNQNKNRNRHDVHNIMNNSGEKEEKKI
SASQNYTFIDYAIEYSEKYAPLRQKLLSTDIGSVASFLLSRESRAITGQTIYVDNGLNIM
FLPDDIYRNENE

> <PDB ID(s) of Target Chain>
1NHG,1NHW,1NNU,1UH5,1V35,2FOI,2NQ8,3LSY,3LT0,3LT1,3LT2,3LT4

> <UniProt (SwissProt) Recommended Name of Target Chain>


> <UniProt (SwissProt) Entry Name of Target Chain>


> <UniProt (SwissProt) Primary ID of Target Chain>


> <UniProt (SwissProt) Secondary ID(s) of Target Chain>


> <UniProt (SwissProt) Alternative ID(s) of Target Chain>


> <UniProt (TrEMBL) Submitted Name of Target Chain>
Enoyl-ACP reductase

> <UniProt (TrEMBL) Entry Name of Target Chain>
Q9BJJ9_PLAFA

> <UniProt (TrEMBL) Primary ID of Target Chain>
Q9BJJ9

> <UniProt (TrEMBL) Secondary ID(s) of Target Chain>


> <UniProt (TrEMBL) Alternative ID(s) of Target Chain>


$$$$
BindingDB_50280914_3D

Vconf v2.1
 55 59  0  0  0  0  0  0  0  0999 V2000
    8.1340  -10.2980    0.7450 C   0  0  0  0  0  0  0  0  0  0  0
    8.0730  -11.0030   -0.4720 C   0  0  0  0  0  0  0  0  0  0  0
    8.3410  -12.3300   -0.5070 N   0  0  0  0  0  0  0  0  0  0  0
    8.4640  -11.0450    1.8980 C   0  0  0  0  0  0  0  0  0  0  0
    7.8550   -8.9090    0.7470 C   0  0  0  0  0  0  0  0  0  0  0
    7.8790   -8.0800    1.8750 C   0  0  0  0  0  0  0  0  0  0  0
    7.5750   -6.7120    1.8210 C   0  0  0  0  0  0  0  0  0  0  0
    7.6250   -5.9510    2.9890 N   0  0  0  0  0  0  0  0  0  0  0
    7.2590   -6.1420    0.7520 O   0  0  0  0  0  0  0  0  0  0  0
    6.9060   -6.0540    4.2560 C   0  0  0  0  0  0  0  0  0  0  0
    7.6860   -4.8000    4.6900 C   0  0  0  0  0  0  0  0  0  0  0
    8.4280   -4.7860    3.3430 C   0  0  0  0  0  0  0  0  0  0  0
    8.5100   -4.8750    5.9040 C   0  0  0  0  0  0  0  0  0  0  0
    9.3790   -3.8770    6.3480 C   0  0  0  0  0  0  0  0  0  0  0
    8.5340   -5.9340    6.7530 O   0  0  0  0  0  0  0  0  0  0  0
    9.4080   -5.6290    7.7380 C   0  0  0  0  0  0  0  0  0  0  0
    9.9490   -4.3630    7.5180 C   0  0  0  0  0  0  0  0  0  0  0
   10.8900   -3.8100    8.4020 C   0  0  0  0  0  0  0  0  0  0  0
   11.2780   -4.5670    9.5260 C   0  0  0  0  0  0  0  0  0  0  0
   10.7300   -5.8490    9.7500 C   0  0  0  0  0  0  0  0  0  0  0
    9.7880   -6.3920    8.8530 C   0  0  0  0  0  0  0  0  0  0  0
    9.6220   -2.5860    5.6930 C   0  0  0  0  0  0  0  0  0  0  0
    8.6760  -13.0660    0.5800 C   0  0  0  0  0  0  0  0  0  0  0
    8.7230  -12.4290    1.8400 C   0  0  0  0  0  0  0  0  0  0  0
    8.9840  -13.1660    3.0850 C   0  0  0  0  0  0  0  0  0  0  0
    8.9190  -14.3700    0.3020 N   0  0  0  0  0  0  0  0  0  0  0
   10.2400  -13.9250    2.9470 N   0  0  0  0  0  0  0  0  0  0  0
    9.4070  -15.3680    1.0770 C   0  0  0  0  0  0  0  0  0  0  0
    9.9720  -15.2850    2.4340 C   0  0  0  0  0  0  0  0  0  0  0
    9.4120  -16.4990    0.5450 O   0  0  0  0  0  0  0  0  0  0  0
   10.9170  -14.0340    4.2540 C   0  0  0  0  0  0  0  0  0  0  0
    7.8310  -10.5250   -1.3410 H   0  0  0  0  0  0  0  0  0  0  0
    8.5030  -10.5850    2.8070 H   0  0  0  0  0  0  0  0  0  0  0
    7.6130   -8.4740   -0.1470 H   0  0  0  0  0  0  0  0  0  0  0
    8.1250   -8.4680    2.7850 H   0  0  0  0  0  0  0  0  0  0  0
    7.1000   -6.9750    4.8080 H   0  0  0  0  0  0  0  0  0  0  0
    5.8260   -5.9250    4.1800 H   0  0  0  0  0  0  0  0  0  0  0
    7.0310   -3.9380    4.8180 H   0  0  0  0  0  0  0  0  0  0  0
    9.5030   -4.9750    3.3680 H   0  0  0  0  0  0  0  0  0  0  0
    8.2520   -3.9050    2.7250 H   0  0  0  0  0  0  0  0  0  0  0
   11.2860   -2.8830    8.2390 H   0  0  0  0  0  0  0  0  0  0  0
   11.9600   -4.1860   10.1820 H   0  0  0  0  0  0  0  0  0  0  0
   11.0190   -6.3870   10.5670 H   0  0  0  0  0  0  0  0  0  0  0
    9.3900   -7.3180    9.0100 H   0  0  0  0  0  0  0  0  0  0  0
   10.3420   -1.9930    6.2580 H   0  0  0  0  0  0  0  0  0  0  0
   10.0140   -2.7550    4.6900 H   0  0  0  0  0  0  0  0  0  0  0
    8.6850   -2.0320    5.6220 H   0  0  0  0  0  0  0  0  0  0  0
    9.0610  -12.4660    3.9210 H   0  0  0  0  0  0  0  0  0  0  0
    8.1460  -13.8360    3.2930 H   0  0  0  0  0  0  0  0  0  0  0
    8.7150  -14.6330   -0.6080 H   0  0  0  0  0  0  0  0  0  0  0
   10.9230  -15.8200    2.4100 H   0  0  0  0  0  0  0  0  0  0  0
    9.3060  -15.8160    3.1160 H   0  0  0  0  0  0  0  0  0  0  0
   11.8450  -14.5960    4.1460 H   0  0  0  0  0  0  0  0  0  0  0
   11.1590  -13.0370    4.6260 H   0  0  0  0  0  0  0  0  0  0  0
   10.2730  -14.5390    4.9760 H   0  0  0  0  0  0  0  0  0  0  0
  1  2  2  0  0  0  0
  1  4  1  0  0  0  0
  1  5  1  0  0  0  0
  2  3  1  0  0  0  0
  2 32  1  0  0  0  0
  3 23  2  0  0  0  0
  4 24  2  0  0  0  0
  4 33  1  0  0  0  0
  5  6  2  0  0  0  0
  5 34  1  0  0  0  0
  6  7  1  0  0  0  0
  6 35  1  0  0  0  0
  7  8  1  0  0  0  0
  7  9  2  0  0  0  0
  8 10  1  0  0  0  0
  8 12  1  0  0  0  0
 10 11  1  0  0  0  0
 10 36  1  0  0  0  0
 10 37  1  0  0  0  0
 11 12  1  0  0  0  0
 11 13  1  0  0  0  0
 11 38  1  0  0  0  0
 12 39  1  0  0  0  0
 12 40  1  0  0  0  0
 13 14  2  0  0  0  0
 13 15  1  0  0  0  0
 14 17  1  0  0  0  0
 14 22  1  0  0  0  0
 15 16  1  0  0  0  0
 16 17  2  0  0  0  0
 16 21  1  0  0  0  0
 17 18  1  0  0  0  0
 18 19  2  0  0  0  0
 18 41  1  0  0  0  0
 19 20  1  0  0  0  0
 19 42  1  0  0  0  0
 20 21  2  0  0  0  0
 20 43  1  0  0  0  0
 21 44  1  0  0  0  0
 22 45  1  0  0  0  0
 22 46  1  0  0  0  0
 22 47  1  0  0  0  0
 23 24  1  0  0  0  0
 23 26  1  0  0  0  0
 24 25  1  0  0  0  0
 25 27  1  0  0  0  0
 25 48  1  0  0  0  0
 25 49  1  0  0  0  0
 26 28  1  0  0  0  0
 26 50  1  0  0  0  0
 27 29  1  0  0  0  0
 27 31  1  0  0  0  0
 28 29  1  0  0  0  0
 28 30  2  0  0  0  0
 29 51  1  0  0  0  0
 29 52  1  0  0  0  0
 31 53  1  0  0  0  0
 31 54  1  0  0  0  0
 31 55  1  0  0  0  0
M  END
> <From>
www.bindingDB.org

> <BindingDB Reactant_set_id>
50280914

> <Ligand InChI>
InChI=1S/C24H24N4O3/c1-15-19-5-3-4-6-20(19)31-23(15)18-12-28(13-18)22(30)8-7-16-9-17-11-27(2)14-21(29)26-24(17)25-10-16/h3-10,18H,11-14H2,1-2H3,(H,25,26,29)/b8-7+

> <Ligand InChI Key>
MMCXAFBVQRDYJN-BQYQJAHWSA-N

> <BindingDB MonomerID>
50052241

> <BindingDB Ligand Name>
CHEMBL3322728

> <Target Name>
Enoyl-[acyl-carrier-protein] reductase [NADPH] FabI [9-251]

> <Target Source Organism According to Curator or DataSource>
Staphylococcus aureus

> <Ki (nM)>


> <IC50 (nM)>
 112

> <Kd (nM)>


> <EC50 (nM)>


> <kon (M-1-s-1)>


> <koff (s-1)>


> <pH>


> <Temp C>


> <Curation/DataSource>
ChEMBL

> <Article DOI>
10.1016/j.ejmech.2014.07.036

> <BindingDB Entry DOI>
10.7270/Q2CJ8G45

> <PMID>
25036796

> <PubChem AID>


> <Patent Number>


> <Authors>
Takhi, M; Sreenivas, K; Reddy, CK; Munikumar, M; Praveena, K; Sudheer, P; Rao, BN; Ramakanth, G; Sivaranjani, J; Mulik, S; Reddy, YR; Narasimha Rao, K; Pallavi, R; Lakshminarasimhan, A; Panigrahi, SK; Antony, T; Abdullah, I; Lee, YK; Ramachandra, M; Yusof, R; Rahman, NA; Subramanya, H

> <Institution>
Aurigene Discovery Technologies Ltd

> <Link to Ligand in BindingDB>
http://www.bindingdb.org/bind/chemsearch/marvin/MolStructure.jsp?monomerid=50052241

> <Link to Ligand-Target Pair in BindingDB>
http://www.bindingdb.org/jsp/dbsearch/PrimarySearch_ki.jsp?energyterm=kJ/mole&tag=pol&polymerid=50004708&target=Enoyl-%5Bacyl-carrier-protein%5D+reductase+%5BNADPH%5D+FabI+%5B9-251%5D&column=ki&startPg=0&Increment=50&submit=Search

> <Link to Ligand-Target Pair in BindingDB>
http://www.bindingdb.org/jsp/dbsearch/PrimarySearch_ki.jsp?energyterm=kJ/mole&tag=r21&monomerid=50052241&enzyme=Enoyl-%5Bacyl-carrier-protein%5D+reductase+%5BNADPH%5D+FabI+%5B9-251%5D&column=ki&startPg=0&Increment=50&submit=Search

> <Ligand HET ID in PDB>


> <PDB ID(s) for Ligand-Target Complex>


> <PubChem CID of Ligand>
118710293

> <PubChem SID of Ligand>
103949137

> <ChEBI ID of Ligand>


> <ChEMBL ID of Ligand>
CHEMBL3322728

> <DrugBank ID of Ligand>


> <IUPHAR_GRAC ID of Ligand>


> <KEGG ID of Ligand>


> <ZINC ID of Ligand>
ZINC13757002

> <Number of Protein Chains in Target (bigger than 1 implies a multichain complex)>
1

> <BindingDB Target Chain Sequence>
YVIMGIANKRSIAFGVAKVLDQLGAKLVFTYRKERSRKELEKLLEQLNQPEAHLYQIDVQSDEEVINGFEQIGKDVGNIDGVYHSIAFANMEDLRGRFSETSREGFLLAQDISSYSLTIVAHEAKKLMPEGGSIVATTYLGGEFAVQNYNVMGVAKASLEANVKYLALDLGPDNIRVNAISAGPIRTLSAKGVGGFNTILKEIEERAPLKRNVDQVEVGKTAAYLLSDLSSGVTGENIHVDSG

> <PDB ID(s) of Target Chain>
3GNS,3GNT,3GR6,4ALI,4ALJ,4ALK,4ALL,4ALM,4ALN,4BNF,4BNG,4BNH,4BNI,4BNJ,4BNK,4BNL,4BNM,4BNN,4CUZ,4CV0,4CV1,4D41,4D42,4D43,4D44,4D45,4FS3,4NZ9,6TBB,6TBC,6YUR

> <UniProt (SwissProt) Recommended Name of Target Chain>
Enoyl-[acyl-carrier-protein] reductase [NADPH] FabI

> <UniProt (SwissProt) Entry Name of Target Chain>
FABI_STAAR

> <UniProt (SwissProt) Primary ID of Target Chain>
Q6GI75

> <UniProt (SwissProt) Secondary ID(s) of Target Chain>


> <UniProt (SwissProt) Alternative ID(s) of Target Chain>


> <UniProt (TrEMBL) Submitted Name of Target Chain>


> <UniProt (TrEMBL) Entry Name of Target Chain>


> <UniProt (TrEMBL) Primary ID of Target Chain>


> <UniProt (TrEMBL) Secondary ID(s) of Target Chain>


> <UniProt (TrEMBL) Alternative ID(s) of Target Chain>


$$$$
13

Vconf v2.0 Academic SN VC001-00000579
 39 40  0  0  0  0  0  0  0  0999 V2000
   -3.0000    3.2360    0.7680 C   0  0  0  0  0  0  0  0  0  0  0
   -4.2620    2.6330    0.6360 C   0  0  0  0  0  0  0  0  0  0  0
   -4.3700    1.2580    0.3490 C   0  0  0  0  0  0  0  0  0  0  0
   -3.1950    0.4960    0.1960 C   0  0  0  0  0  0  0  0  0  0  0
   -1.9330    1.0990    0.3280 C   0  0  0  0  0  0  0  0  0  0  0
   -1.8250    2.4790    0.6030 C   0  0  0  0  0  0  0  0  0  0  0
   -2.9190    4.5560    1.0500 O   0  0  0  0  0  0  0  0  0  0  0
   -0.6270    3.1230    0.7620 O   0  0  0  0  0  0  0  0  0  0  0
    0.5240    2.8340    0.0740 C   0  0  0  0  0  0  0  0  0  0  0
    1.7640    2.8790    0.7480 C   0  0  0  0  0  0  0  0  0  0  0
    0.5040    2.5450   -1.3070 C   0  0  0  0  0  0  0  0  0  0  0
    1.6950    2.2780   -2.0010 C   0  0  0  0  0  0  0  0  0  0  0
    2.9270    2.3090   -1.3230 C   0  0  0  0  0  0  0  0  0  0  0
    2.9590    2.6120    0.0510 C   0  0  0  0  0  0  0  0  0  0  0
    1.8490    3.2460    2.4010 Cl  0  0  0  0  0  0  0  0  0  0  0
    4.3630    1.9890   -2.1570 Cl  0  0  0  0  0  0  0  0  0  0  0
   -5.7010    0.6330    0.2070 C   0  0  0  0  0  0  0  0  0  0  0
   -6.4870    0.6510    1.5340 C   0  0  0  0  0  0  0  0  0  0  0
   -7.8310   -0.0950    1.4180 C   0  0  0  0  0  0  0  0  0  0  0
   -8.4720   -0.2140    2.8100 C   0  0  0  0  0  0  0  0  0  0  0
   -8.8010    0.6320    0.4720 C   0  0  0  0  0  0  0  0  0  0  0
   -5.1040    3.1980    0.7490 H   0  0  0  0  0  0  0  0  0  0  0
   -3.2550   -0.5030   -0.0080 H   0  0  0  0  0  0  0  0  0  0  0
   -1.0910    0.5300    0.2260 H   0  0  0  0  0  0  0  0  0  0  0
   -1.9990    4.8880    1.1280 H   0  0  0  0  0  0  0  0  0  0  0
   -0.3820    2.5310   -1.8130 H   0  0  0  0  0  0  0  0  0  0  0
    1.6570    2.0660   -3.0000 H   0  0  0  0  0  0  0  0  0  0  0
    3.8550    2.6390    0.5430 H   0  0  0  0  0  0  0  0  0  0  0
   -6.2600    1.1760   -0.5560 H   0  0  0  0  0  0  0  0  0  0  0
   -5.6000   -0.4040   -0.1180 H   0  0  0  0  0  0  0  0  0  0  0
   -5.8850    0.1620    2.3030 H   0  0  0  0  0  0  0  0  0  0  0
   -6.6770    1.6810    1.8400 H   0  0  0  0  0  0  0  0  0  0  0
   -7.6500   -1.1000    1.0350 H   0  0  0  0  0  0  0  0  0  0  0
   -9.4110   -0.7630    2.7360 H   0  0  0  0  0  0  0  0  0  0  0
   -7.7990   -0.7500    3.4800 H   0  0  0  0  0  0  0  0  0  0  0
   -8.6670    0.7790    3.2160 H   0  0  0  0  0  0  0  0  0  0  0
   -9.7650    0.1240    0.4740 H   0  0  0  0  0  0  0  0  0  0  0
   -8.9390    1.6630    0.8000 H   0  0  0  0  0  0  0  0  0  0  0
   -8.4070    0.6270   -0.5440 H   0  0  0  0  0  0  0  0  0  0  0
  1  2  2  0  0  0  0
  1  6  1  0  0  0  0
  1  7  1  0  0  0  0
  2  3  1  0  0  0  0
  2 22  1  0  0  0  0
  3  4  2  0  0  0  0
  3 17  1  0  0  0  0
  4  5  1  0  0  0  0
  4 23  1  0  0  0  0
  5  6  2  0  0  0  0
  5 24  1  0  0  0  0
  6  8  1  0  0  0  0
  7 25  1  0  0  0  0
  8  9  1  0  0  0  0
  9 10  2  0  0  0  0
  9 11  1  0  0  0  0
 10 14  1  0  0  0  0
 10 15  1  0  0  0  0
 11 12  2  0  0  0  0
 11 26  1  0  0  0  0
 12 13  1  0  0  0  0
 12 27  1  0  0  0  0
 13 14  2  0  0  0  0
 13 16  1  0  0  0  0
 14 28  1  0  0  0  0
 17 18  1  0  0  0  0
 17 29  1  0  0  0  0
 17 30  1  0  0  0  0
 18 19  1  0  0  0  0
 18 31  1  0  0  0  0
 18 32  1  0  0  0  0
 19 20  1  0  0  0  0
 19 21  1  0  0  0  0
 19 33  1  0  0  0  0
 20 34  1  0  0  0  0
 20 35  1  0  0  0  0
 20 36  1  0  0  0  0
 21 37  1  0  0  0  0
 21 38  1  0  0  0  0
 21 39  1  0  0  0  0
M  END
> <From>
www.bindingDB.org

> <BindingDB Reactant_set_id>
46065

> <Ligand InChI>
InChI=1S/C17H18Cl2O2/c1-11(2)3-4-12-5-7-17(15(20)9-12)21-16-8-6-13(18)10-14(16)19/h5-11,20H,3-4H2,1-2H3

> <Ligand InChI Key>
CODNLKSZUDXSLW-UHFFFAOYSA-N

> <BindingDB MonomerID>
25412

> <BindingDB Ligand Name>
2-(2,4-dichlorophenoxy)-5-(3-methylbutyl)phenol::Triclosan derivative, 13

> <Target Name>
Enoyl-ACP reductase

> <Target Source Organism According to Curator or DataSource>
Plasmodium falciparum

> <Ki (nM)>


> <IC50 (nM)>
 120

> <Kd (nM)>


> <EC50 (nM)>


> <kon (M-1-s-1)>


> <koff (s-1)>


> <pH>
7.9

> <Temp C>
25.00

> <Curation/DataSource>
Curated from the literature by BindingDB

> <Article DOI>
10.1074/jbc.M701813200

> <BindingDB Entry DOI>
10.7270/Q22V2DFD

> <PMID>
17567585

> <PubChem AID>
aid1798551

> <Patent Number>


> <Authors>
Freundlich, JS; Wang, F; Tsai, HC; Kuo, M; Shieh, HM; Anderson, JW; Nkrumah, LJ; Valderramos, JC; Yu, M; Kumar, TR; Valderramos, SG; Jacobs, WR; Schiehser, GA; Jacobus, DP; Fidock, DA; Sacchettini, JC

> <Institution>
Jacobus Pharmaceutical Company

> <Link to Ligand in BindingDB>
http://www.bindingdb.org/bind/chemsearch/marvin/MolStructure.jsp?monomerid=25412

> <Link to Ligand-Target Pair in BindingDB>
http://www.bindingdb.org/jsp/dbsearch/PrimarySearch_ki.jsp?energyterm=kJ/mole&tag=pol&polymerid=2820&target=Enoyl-ACP+reductase&column=ki&startPg=0&Increment=50&submit=Search

> <Link to Ligand-Target Pair in BindingDB>
http://www.bindingdb.org/jsp/dbsearch/PrimarySearch_ki.jsp?energyterm=kJ/mole&tag=r21&monomerid=25412&enzyme=Enoyl-ACP+reductase&column=ki&startPg=0&Increment=50&submit=Search

> <Ligand HET ID in PDB>


> <PDB ID(s) for Ligand-Target Complex>


> <PubChem CID of Ligand>
25023963

> <PubChem SID of Ligand>
56374551

> <ChEBI ID of Ligand>


> <ChEMBL ID of Ligand>


> <DrugBank ID of Ligand>


> <IUPHAR_GRAC ID of Ligand>


> <KEGG ID of Ligand>


> <ZINC ID of Ligand>
ZINC29061415

> <Number of Protein Chains in Target (bigger than 1 implies a multichain complex)>
1

> <BindingDB Target Chain Sequence>
MNKISQRLLFLFLHFYTTVCFIQNNTQKTFHNVLQNEQIRGKEKAFYRKEKRENIFIGNK
MKHVHNMNNTHNNNHYMEKEEQDASNINKIKEENKNEDICFIAGIGDTNGYGWGIAKELS
KRNVKIIFGIWPPVYNIFMKNYKNGKFDNDMIIDKDKKMNILDMLPFDASFDTANDIDEE
TKNNKRYNMLQNYTIEDVANLIHQKYGKINMLVHSLANAKEVQKDLLNTSRKGYLDALSK
SSYSLISLCKYFVNIMKPQSSIISLTYHASQKVVPGYGGGMSSAKAALESDTRVLAYHLG
RNYNIRINTISAGPLKSRAATAINKLNNTYENNTNQNKNRNRHDVHNIMNNSGEKEEKKI
SASQNYTFIDYAIEYSEKYAPLRQKLLSTDIGSVASFLLSRESRAITGQTIYVDNGLNIM
FLPDDIYRNENE

> <PDB ID(s) of Target Chain>
1NHG,1NHW,1NNU,1UH5,1V35,2FOI,2NQ8,3LSY,3LT0,3LT1,3LT2,3LT4

> <UniProt (SwissProt) Recommended Name of Target Chain>


> <UniProt (SwissProt) Entry Name of Target Chain>


> <UniProt (SwissProt) Primary ID of Target Chain>


> <UniProt (SwissProt) Secondary ID(s) of Target Chain>


> <UniProt (SwissProt) Alternative ID(s) of Target Chain>


> <UniProt (TrEMBL) Submitted Name of Target Chain>
Enoyl-ACP reductase

> <UniProt (TrEMBL) Entry Name of Target Chain>
Q9BJJ9_PLAFA

> <UniProt (TrEMBL) Primary ID of Target Chain>
Q9BJJ9

> <UniProt (TrEMBL) Secondary ID(s) of Target Chain>


> <UniProt (TrEMBL) Alternative ID(s) of Target Chain>


$$$$
3

Vconf v2.0 Academic SN VC001-00000579
 34 36  0  0  0  0  0  0  0  0999 V2000
   -3.0130    3.1310    0.8470 C   0  0  0  0  0  0  0  0  0  0  0
   -4.2420    2.4540    0.7770 C   0  0  0  0  0  0  0  0  0  0  0
   -4.3020    1.0660    0.5070 C   0  0  0  0  0  0  0  0  0  0  0
   -3.0770    0.3830    0.3130 C   0  0  0  0  0  0  0  0  0  0  0
   -1.8470    1.0580    0.3810 C   0  0  0  0  0  0  0  0  0  0  0
   -1.8060    2.4430    0.6370 C   0  0  0  0  0  0  0  0  0  0  0
   -2.9990    4.4570    1.1100 O   0  0  0  0  0  0  0  0  0  0  0
   -0.6410    3.1590    0.7380 O   0  0  0  0  0  0  0  0  0  0  0
    0.5080    2.8870    0.0420 C   0  0  0  0  0  0  0  0  0  0  0
    1.7530    2.9270    0.7080 C   0  0  0  0  0  0  0  0  0  0  0
    0.4770    2.6160   -1.3420 C   0  0  0  0  0  0  0  0  0  0  0
    1.6630    2.3630   -2.0490 C   0  0  0  0  0  0  0  0  0  0  0
    2.9000    2.3880   -1.3800 C   0  0  0  0  0  0  0  0  0  0  0
    2.9420    2.6720   -0.0030 C   0  0  0  0  0  0  0  0  0  0  0
    1.8480    3.2700    2.3650 Cl  0  0  0  0  0  0  0  0  0  0  0
    4.3300    2.0820   -2.2300 Cl  0  0  0  0  0  0  0  0  0  0  0
   -5.5530    0.3780    0.4360 C   0  0  0  0  0  0  0  0  0  0  0
   -6.6460    0.7580    1.2530 C   0  0  0  0  0  0  0  0  0  0  0
   -7.8770    0.0840    1.1840 C   0  0  0  0  0  0  0  0  0  0  0
   -8.0410   -0.9890    0.2950 C   0  0  0  0  0  0  0  0  0  0  0
   -6.9730   -1.3840   -0.5250 C   0  0  0  0  0  0  0  0  0  0  0
   -5.7440   -0.7070   -0.4550 C   0  0  0  0  0  0  0  0  0  0  0
   -5.0990    2.9910    0.9170 H   0  0  0  0  0  0  0  0  0  0  0
   -3.0670   -0.6220    0.1330 H   0  0  0  0  0  0  0  0  0  0  0
   -0.9800    0.5360    0.2500 H   0  0  0  0  0  0  0  0  0  0  0
   -2.0980    4.8450    1.1430 H   0  0  0  0  0  0  0  0  0  0  0
   -0.4140    2.6060   -1.8390 H   0  0  0  0  0  0  0  0  0  0  0
    1.6180    2.1640   -3.0500 H   0  0  0  0  0  0  0  0  0  0  0
    3.8420    2.6950    0.4830 H   0  0  0  0  0  0  0  0  0  0  0
   -6.5530    1.5260    1.9190 H   0  0  0  0  0  0  0  0  0  0  0
   -8.6510    0.3720    1.7840 H   0  0  0  0  0  0  0  0  0  0  0
   -8.9340   -1.4790    0.2440 H   0  0  0  0  0  0  0  0  0  0  0
   -7.0910   -2.1620   -1.1750 H   0  0  0  0  0  0  0  0  0  0  0
   -4.9900   -1.0090   -1.0720 H   0  0  0  0  0  0  0  0  0  0  0
  1  2  2  0  0  0  0
  1  6  1  0  0  0  0
  1  7  1  0  0  0  0
  2  3  1  0  0  0  0
  2 23  1  0  0  0  0
  3  4  2  0  0  0  0
  3 17  1  0  0  0  0
  4  5  1  0  0  0  0
  4 24  1  0  0  0  0
  5  6  2  0  0  0  0
  5 25  1  0  0  0  0
  6  8  1  0  0  0  0
  7 26  1  0  0  0  0
  8  9  1  0  0  0  0
  9 10  2  0  0  0  0
  9 11  1  0  0  0  0
 10 14  1  0  0  0  0
 10 15  1  0  0  0  0
 11 12  2  0  0  0  0
 11 27  1  0  0  0  0
 12 13  1  0  0  0  0
 12 28  1  0  0  0  0
 13 14  2  0  0  0  0
 13 16  1  0  0  0  0
 14 29  1  0  0  0  0
 17 18  1  0  0  0  0
 17 22  2  0  0  0  0
 18 19  2  0  0  0  0
 18 30  1  0  0  0  0
 19 20  1  0  0  0  0
 19 31  1  0  0  0  0
 20 21  2  0  0  0  0
 20 32  1  0  0  0  0
 21 22  1  0  0  0  0
 21 33  1  0  0  0  0
 22 34  1  0  0  0  0
M  END
> <From>
www.bindingDB.org

> <BindingDB Reactant_set_id>
46055

> <Ligand InChI>
InChI=1S/C18H12Cl2O2/c19-14-7-9-17(15(20)11-14)22-18-8-6-13(10-16(18)21)12-4-2-1-3-5-12/h1-11,21H

> <Ligand InChI Key>
NOKHJANPMHROFU-UHFFFAOYSA-N

> <BindingDB MonomerID>
25402

> <BindingDB Ligand Name>
2-(2,4-dichlorophenoxy)-5-phenylphenol::Triclosan derivative, 3

> <Target Name>
Enoyl-ACP reductase

> <Target Source Organism According to Curator or DataSource>
Plasmodium falciparum

> <Ki (nM)>


> <IC50 (nM)>
 140

> <Kd (nM)>


> <EC50 (nM)>


> <kon (M-1-s-1)>


> <koff (s-1)>


> <pH>
7.9

> <Temp C>
25.00

> <Curation/DataSource>
Curated from the literature by BindingDB

> <Article DOI>
10.1074/jbc.M701813200

> <BindingDB Entry DOI>
10.7270/Q22V2DFD

> <PMID>
17567585

> <PubChem AID>
aid1798551

> <Patent Number>


> <Authors>
Freundlich, JS; Wang, F; Tsai, HC; Kuo, M; Shieh, HM; Anderson, JW; Nkrumah, LJ; Valderramos, JC; Yu, M; Kumar, TR; Valderramos, SG; Jacobs, WR; Schiehser, GA; Jacobus, DP; Fidock, DA; Sacchettini, JC

> <Institution>
Jacobus Pharmaceutical Company

> <Link to Ligand in BindingDB>
http://www.bindingdb.org/bind/chemsearch/marvin/MolStructure.jsp?monomerid=25402

> <Link to Ligand-Target Pair in BindingDB>
http://www.bindingdb.org/jsp/dbsearch/PrimarySearch_ki.jsp?energyterm=kJ/mole&tag=pol&polymerid=2820&target=Enoyl-ACP+reductase&column=ki&startPg=0&Increment=50&submit=Search

> <Link to Ligand-Target Pair in BindingDB>
http://www.bindingdb.org/jsp/dbsearch/PrimarySearch_ki.jsp?energyterm=kJ/mole&tag=r21&monomerid=25402&enzyme=Enoyl-ACP+reductase&column=ki&startPg=0&Increment=50&submit=Search

> <Ligand HET ID in PDB>


> <PDB ID(s) for Ligand-Target Complex>


> <PubChem CID of Ligand>
25023954

> <PubChem SID of Ligand>
56374541

> <ChEBI ID of Ligand>


> <ChEMBL ID of Ligand>


> <DrugBank ID of Ligand>


> <IUPHAR_GRAC ID of Ligand>


> <KEGG ID of Ligand>


> <ZINC ID of Ligand>
ZINC29059800

> <Number of Protein Chains in Target (bigger than 1 implies a multichain complex)>
1

> <BindingDB Target Chain Sequence>
MNKISQRLLFLFLHFYTTVCFIQNNTQKTFHNVLQNEQIRGKEKAFYRKEKRENIFIGNK
MKHVHNMNNTHNNNHYMEKEEQDASNINKIKEENKNEDICFIAGIGDTNGYGWGIAKELS
KRNVKIIFGIWPPVYNIFMKNYKNGKFDNDMIIDKDKKMNILDMLPFDASFDTANDIDEE
TKNNKRYNMLQNYTIEDVANLIHQKYGKINMLVHSLANAKEVQKDLLNTSRKGYLDALSK
SSYSLISLCKYFVNIMKPQSSIISLTYHASQKVVPGYGGGMSSAKAALESDTRVLAYHLG
RNYNIRINTISAGPLKSRAATAINKLNNTYENNTNQNKNRNRHDVHNIMNNSGEKEEKKI
SASQNYTFIDYAIEYSEKYAPLRQKLLSTDIGSVASFLLSRESRAITGQTIYVDNGLNIM
FLPDDIYRNENE

> <PDB ID(s) of Target Chain>
1NHG,1NHW,1NNU,1UH5,1V35,2FOI,2NQ8,3LSY,3LT0,3LT1,3LT2,3LT4

> <UniProt (SwissProt) Recommended Name of Target Chain>


> <UniProt (SwissProt) Entry Name of Target Chain>


> <UniProt (SwissProt) Primary ID of Target Chain>


> <UniProt (SwissProt) Secondary ID(s) of Target Chain>


> <UniProt (SwissProt) Alternative ID(s) of Target Chain>


> <UniProt (TrEMBL) Submitted Name of Target Chain>
Enoyl-ACP reductase

> <UniProt (TrEMBL) Entry Name of Target Chain>
Q9BJJ9_PLAFA

> <UniProt (TrEMBL) Primary ID of Target Chain>
Q9BJJ9

> <UniProt (TrEMBL) Secondary ID(s) of Target Chain>


> <UniProt (TrEMBL) Alternative ID(s) of Target Chain>


$$$$
BindingDB_50280905_3D

Vconf v2.1
 50 54  0  0  0  0  0  0  0  0999 V2000
   16.3810  -10.0100    1.3030 C   0  0  0  0  0  0  0  0  0  0  0
   15.5480   -9.0720    0.6910 C   0  0  0  0  0  0  0  0  0  0  0
   16.4030  -11.1620    0.5860 O   0  0  0  0  0  0  0  0  0  0  0
   15.5920  -10.9760   -0.4800 C   0  0  0  0  0  0  0  0  0  0  0
   15.0470   -9.6940   -0.4450 C   0  0  0  0  0  0  0  0  0  0  0
   14.1650   -9.2500   -1.4450 C   0  0  0  0  0  0  0  0  0  0  0
   13.8400  -10.1360   -2.4910 C   0  0  0  0  0  0  0  0  0  0  0
   14.3910  -11.4350   -2.5280 C   0  0  0  0  0  0  0  0  0  0  0
   15.2750  -11.8660   -1.5190 C   0  0  0  0  0  0  0  0  0  0  0
   20.4040  -10.4150    7.1890 C   0  0  0  0  0  0  0  0  0  0  0
   19.4020  -10.6430    8.1550 C   0  0  0  0  0  0  0  0  0  0  0
   19.7290  -10.8600    9.4530 N   0  0  0  0  0  0  0  0  0  0  0
   21.7440  -10.4250    7.6390 C   0  0  0  0  0  0  0  0  0  0  0
   22.0590  -10.6530    8.9910 C   0  0  0  0  0  0  0  0  0  0  0
   21.0070  -10.8730    9.8990 C   0  0  0  0  0  0  0  0  0  0  0
   21.2300  -11.0980   11.2100 N   0  0  0  0  0  0  0  0  0  0  0
   22.4610  -11.1340   11.7580 C   0  0  0  0  0  0  0  0  0  0  0
   23.6820  -10.9290   10.9610 C   0  0  0  0  0  0  0  0  0  0  0
   23.4620  -10.6590    9.4490 C   0  0  0  0  0  0  0  0  0  0  0
   22.5630  -11.3510   12.9850 O   0  0  0  0  0  0  0  0  0  0  0
   20.0180  -10.1930    5.8440 C   0  0  0  0  0  0  0  0  0  0  0
   20.8930   -9.9560    4.7770 C   0  0  0  0  0  0  0  0  0  0  0
   20.4560   -9.7430    3.4610 C   0  0  0  0  0  0  0  0  0  0  0
   19.1070   -9.7710    3.0950 N   0  0  0  0  0  0  0  0  0  0  0
   21.3020   -9.5070    2.5710 O   0  0  0  0  0  0  0  0  0  0  0
   18.1400  -10.8630    2.9960 C   0  0  0  0  0  0  0  0  0  0  0
   17.1290   -9.7950    2.5490 C   0  0  0  0  0  0  0  0  0  0  0
   18.2410   -8.7340    2.5440 C   0  0  0  0  0  0  0  0  0  0  0
   15.2730   -7.7110    1.1710 C   0  0  0  0  0  0  0  0  0  0  0
   13.7670   -8.3110   -1.4170 H   0  0  0  0  0  0  0  0  0  0  0
   13.2010   -9.8360   -3.2280 H   0  0  0  0  0  0  0  0  0  0  0
   14.1470  -12.0680   -3.2910 H   0  0  0  0  0  0  0  0  0  0  0
   15.6760  -12.8040   -1.5400 H   0  0  0  0  0  0  0  0  0  0  0
   18.4150  -10.6470    7.8900 H   0  0  0  0  0  0  0  0  0  0  0
   22.5110  -10.2660    6.9860 H   0  0  0  0  0  0  0  0  0  0  0
   20.4660  -11.2430   11.7890 H   0  0  0  0  0  0  0  0  0  0  0
   24.3050  -11.8180   11.0660 H   0  0  0  0  0  0  0  0  0  0  0
   24.2250  -10.0840   11.3870 H   0  0  0  0  0  0  0  0  0  0  0
   24.0030  -11.4230    8.8880 H   0  0  0  0  0  0  0  0  0  0  0
   23.9040   -9.6900    9.2110 H   0  0  0  0  0  0  0  0  0  0  0
   19.0170  -10.2030    5.6350 H   0  0  0  0  0  0  0  0  0  0  0
   21.8980   -9.9270    4.9450 H   0  0  0  0  0  0  0  0  0  0  0
   17.9000  -11.3740    3.9290 H   0  0  0  0  0  0  0  0  0  0  0
   18.4110  -11.6190    2.2580 H   0  0  0  0  0  0  0  0  0  0  0
   16.3800   -9.6020    3.3190 H   0  0  0  0  0  0  0  0  0  0  0
   18.0730   -7.8730    3.1920 H   0  0  0  0  0  0  0  0  0  0  0
   18.5600   -8.3680    1.5660 H   0  0  0  0  0  0  0  0  0  0  0
   14.5780   -7.1980    0.5050 H   0  0  0  0  0  0  0  0  0  0  0
   14.8370   -7.7590    2.1690 H   0  0  0  0  0  0  0  0  0  0  0
   16.2040   -7.1450    1.2130 H   0  0  0  0  0  0  0  0  0  0  0
  1  2  2  0  0  0  0
  1  3  1  0  0  0  0
  1 27  1  0  0  0  0
  2  5  1  0  0  0  0
  2 29  1  0  0  0  0
  3  4  1  0  0  0  0
  4  5  2  0  0  0  0
  4  9  1  0  0  0  0
  5  6  1  0  0  0  0
  6  7  2  0  0  0  0
  6 30  1  0  0  0  0
  7  8  1  0  0  0  0
  7 31  1  0  0  0  0
  8  9  2  0  0  0  0
  8 32  1  0  0  0  0
  9 33  1  0  0  0  0
 10 11  2  0  0  0  0
 10 13  1  0  0  0  0
 10 21  1  0  0  0  0
 11 12  1  0  0  0  0
 11 34  1  0  0  0  0
 12 15  2  0  0  0  0
 13 14  2  0  0  0  0
 13 35  1  0  0  0  0
 14 15  1  0  0  0  0
 14 19  1  0  0  0  0
 15 16  1  0  0  0  0
 16 17  1  0  0  0  0
 16 36  1  0  0  0  0
 17 18  1  0  0  0  0
 17 20  2  0  0  0  0
 18 19  1  0  0  0  0
 18 37  1  0  0  0  0
 18 38  1  0  0  0  0
 19 39  1  0  0  0  0
 19 40  1  0  0  0  0
 21 22  2  0  0  0  0
 21 41  1  0  0  0  0
 22 23  1  0  0  0  0
 22 42  1  0  0  0  0
 23 24  1  0  0  0  0
 23 25  2  0  0  0  0
 24 26  1  0  0  0  0
 24 28  1  0  0  0  0
 26 27  1  0  0  0  0
 26 43  1  0  0  0  0
 26 44  1  0  0  0  0
 27 28  1  0  0  0  0
 27 45  1  0  0  0  0
 28 46  1  0  0  0  0
 28 47  1  0  0  0  0
 29 48  1  0  0  0  0
 29 49  1  0  0  0  0
 29 50  1  0  0  0  0
M  END
> <From>
www.bindingDB.org

> <BindingDB Reactant_set_id>
50280905

> <Ligand InChI>
InChI=1S/C23H21N3O3/c1-14-18-4-2-3-5-19(18)29-22(14)17-12-26(13-17)21(28)9-6-15-10-16-7-8-20(27)25-23(16)24-11-15/h2-6,9-11,17H,7-8,12-13H2,1H3,(H,24,25,27)/b9-6+

> <Ligand InChI Key>
OTHXOQIDEXDBSX-RMKNXTFCSA-N

> <BindingDB MonomerID>
50052232

> <BindingDB Ligand Name>
CHEMBL3322718

> <Target Name>
Enoyl-[acyl-carrier-protein] reductase [NADPH] FabI [9-251]

> <Target Source Organism According to Curator or DataSource>
Staphylococcus aureus

> <Ki (nM)>


> <IC50 (nM)>
 141

> <Kd (nM)>


> <EC50 (nM)>


> <kon (M-1-s-1)>


> <koff (s-1)>


> <pH>


> <Temp C>


> <Curation/DataSource>
ChEMBL

> <Article DOI>
10.1016/j.ejmech.2014.07.036

> <BindingDB Entry DOI>
10.7270/Q2CJ8G45

> <PMID>
25036796

> <PubChem AID>


> <Patent Number>


> <Authors>
Takhi, M; Sreenivas, K; Reddy, CK; Munikumar, M; Praveena, K; Sudheer, P; Rao, BN; Ramakanth, G; Sivaranjani, J; Mulik, S; Reddy, YR; Narasimha Rao, K; Pallavi, R; Lakshminarasimhan, A; Panigrahi, SK; Antony, T; Abdullah, I; Lee, YK; Ramachandra, M; Yusof, R; Rahman, NA; Subramanya, H

> <Institution>
Aurigene Discovery Technologies Ltd

> <Link to Ligand in BindingDB>
http://www.bindingdb.org/bind/chemsearch/marvin/MolStructure.jsp?monomerid=50052232

> <Link to Ligand-Target Pair in BindingDB>
http://www.bindingdb.org/jsp/dbsearch/PrimarySearch_ki.jsp?energyterm=kJ/mole&tag=pol&polymerid=50004708&target=Enoyl-%5Bacyl-carrier-protein%5D+reductase+%5BNADPH%5D+FabI+%5B9-251%5D&column=ki&startPg=0&Increment=50&submit=Search

> <Link to Ligand-Target Pair in BindingDB>
http://www.bindingdb.org/jsp/dbsearch/PrimarySearch_ki.jsp?energyterm=kJ/mole&tag=r21&monomerid=50052232&enzyme=Enoyl-%5Bacyl-carrier-protein%5D+reductase+%5BNADPH%5D+FabI+%5B9-251%5D&column=ki&startPg=0&Increment=50&submit=Search

> <Ligand HET ID in PDB>


> <PDB ID(s) for Ligand-Target Complex>


> <PubChem CID of Ligand>
52950833

> <PubChem SID of Ligand>
103949128

> <ChEBI ID of Ligand>


> <ChEMBL ID of Ligand>
CHEMBL3322718

> <DrugBank ID of Ligand>


> <IUPHAR_GRAC ID of Ligand>


> <KEGG ID of Ligand>


> <ZINC ID of Ligand>
ZINC13757009

> <Number of Protein Chains in Target (bigger than 1 implies a multichain complex)>
1

> <BindingDB Target Chain Sequence>
YVIMGIANKRSIAFGVAKVLDQLGAKLVFTYRKERSRKELEKLLEQLNQPEAHLYQIDVQSDEEVINGFEQIGKDVGNIDGVYHSIAFANMEDLRGRFSETSREGFLLAQDISSYSLTIVAHEAKKLMPEGGSIVATTYLGGEFAVQNYNVMGVAKASLEANVKYLALDLGPDNIRVNAISAGPIRTLSAKGVGGFNTILKEIEERAPLKRNVDQVEVGKTAAYLLSDLSSGVTGENIHVDSG

> <PDB ID(s) of Target Chain>
3GNS,3GNT,3GR6,4ALI,4ALJ,4ALK,4ALL,4ALM,4ALN,4BNF,4BNG,4BNH,4BNI,4BNJ,4BNK,4BNL,4BNM,4BNN,4CUZ,4CV0,4CV1,4D41,4D42,4D43,4D44,4D45,4FS3,4NZ9,6TBB,6TBC,6YUR

> <UniProt (SwissProt) Recommended Name of Target Chain>
Enoyl-[acyl-carrier-protein] reductase [NADPH] FabI

> <UniProt (SwissProt) Entry Name of Target Chain>
FABI_STAAR

> <UniProt (SwissProt) Primary ID of Target Chain>
Q6GI75

> <UniProt (SwissProt) Secondary ID(s) of Target Chain>


> <UniProt (SwissProt) Alternative ID(s) of Target Chain>


> <UniProt (TrEMBL) Submitted Name of Target Chain>


> <UniProt (TrEMBL) Entry Name of Target Chain>


> <UniProt (TrEMBL) Primary ID of Target Chain>


> <UniProt (TrEMBL) Secondary ID(s) of Target Chain>


> <UniProt (TrEMBL) Alternative ID(s) of Target Chain>


$$$$
BindingDB_50280910_3D

Vconf v2.1
 49 52  0  0  0  0  0  0  0  0999 V2000
    8.2570   -0.8060    0.4240 C   0  0  0  0  0  0  0  0  0  0  0
    8.1740   -2.2140    0.4090 C   0  0  0  0  0  0  0  0  0  0  0
    9.1570   -2.9670    0.9600 N   0  0  0  0  0  0  0  0  0  0  0
    9.3990   -0.2380    1.0330 C   0  0  0  0  0  0  0  0  0  0  0
   10.3990   -1.0470    1.5950 C   0  0  0  0  0  0  0  0  0  0  0
   10.2620   -2.4430    1.5510 C   0  0  0  0  0  0  0  0  0  0  0
    7.2070   -0.0530   -0.1590 C   0  0  0  0  0  0  0  0  0  0  0
    7.1550    1.3450   -0.2280 C   0  0  0  0  0  0  0  0  0  0  0
    6.0860    2.0440   -0.8080 C   0  0  0  0  0  0  0  0  0  0  0
    4.9560    1.4060   -1.3280 N   0  0  0  0  0  0  0  0  0  0  0
    6.1390    3.2910   -0.8700 O   0  0  0  0  0  0  0  0  0  0  0
    3.8610    0.6780   -0.6910 C   0  0  0  0  0  0  0  0  0  0  0
    3.2710    0.5180   -2.1030 C   0  0  0  0  0  0  0  0  0  0  0
    4.4490    1.3130   -2.6930 C   0  0  0  0  0  0  0  0  0  0  0
    3.0720   -0.8440   -2.6160 C   0  0  0  0  0  0  0  0  0  0  0
    2.6760   -1.1650   -3.9160 C   0  0  0  0  0  0  0  0  0  0  0
    3.2540   -1.9730   -1.8850 O   0  0  0  0  0  0  0  0  0  0  0
    2.9790   -3.0170   -2.7000 C   0  0  0  0  0  0  0  0  0  0  0
    2.6180   -2.5520   -3.9620 C   0  0  0  0  0  0  0  0  0  0  0
    2.2820   -3.4410   -4.9970 C   0  0  0  0  0  0  0  0  0  0  0
    2.3200   -4.8250   -4.7280 C   0  0  0  0  0  0  0  0  0  0  0
    2.6860   -5.2970   -3.4490 C   0  0  0  0  0  0  0  0  0  0  0
    3.0200   -4.3920   -2.4210 C   0  0  0  0  0  0  0  0  0  0  0
    2.3870   -0.2120   -4.9950 C   0  0  0  0  0  0  0  0  0  0  0
   11.2390   -3.2050    2.1010 N   0  0  0  0  0  0  0  0  0  0  0
   11.2750   -4.5580    2.1490 C   0  0  0  0  0  0  0  0  0  0  0
   12.4230   -5.1950    2.7950 C   0  0  0  0  0  0  0  0  0  0  0
   10.3780   -5.2870    1.6690 O   0  0  0  0  0  0  0  0  0  0  0
    7.3730   -2.6850   -0.0160 H   0  0  0  0  0  0  0  0  0  0  0
    9.5180    0.7740    1.0760 H   0  0  0  0  0  0  0  0  0  0  0
   11.2160   -0.6190    2.0320 H   0  0  0  0  0  0  0  0  0  0  0
    6.4270   -0.5720   -0.5670 H   0  0  0  0  0  0  0  0  0  0  0
    7.9260    1.8980    0.1460 H   0  0  0  0  0  0  0  0  0  0  0
    3.2590    1.2790   -0.0090 H   0  0  0  0  0  0  0  0  0  0  0
    4.1510   -0.2320   -0.1650 H   0  0  0  0  0  0  0  0  0  0  0
    2.3140    1.0300   -2.2110 H   0  0  0  0  0  0  0  0  0  0  0
    4.1800    2.2690   -3.1450 H   0  0  0  0  0  0  0  0  0  0  0
    5.1090    0.7850   -3.3820 H   0  0  0  0  0  0  0  0  0  0  0
    2.0180   -3.0990   -5.9210 H   0  0  0  0  0  0  0  0  0  0  0
    2.0800   -5.4900   -5.4640 H   0  0  0  0  0  0  0  0  0  0  0
    2.7090   -6.3000   -3.2670 H   0  0  0  0  0  0  0  0  0  0  0
    3.2860   -4.7280   -1.4950 H   0  0  0  0  0  0  0  0  0  0  0
    2.0890   -0.7350   -5.9040 H   0  0  0  0  0  0  0  0  0  0  0
    1.5780    0.4510   -4.6880 H   0  0  0  0  0  0  0  0  0  0  0
    3.2770    0.3820   -5.2040 H   0  0  0  0  0  0  0  0  0  0  0
   11.9870   -2.7370    2.5010 H   0  0  0  0  0  0  0  0  0  0  0
   12.3190   -6.2800    2.7590 H   0  0  0  0  0  0  0  0  0  0  0
   13.3380   -4.9060    2.2770 H   0  0  0  0  0  0  0  0  0  0  0
   12.4790   -4.8740    3.8350 H   0  0  0  0  0  0  0  0  0  0  0
  1  2  2  0  0  0  0
  1  4  1  0  0  0  0
  1  7  1  0  0  0  0
  2  3  1  0  0  0  0
  2 29  1  0  0  0  0
  3  6  2  0  0  0  0
  4  5  2  0  0  0  0
  4 30  1  0  0  0  0
  5  6  1  0  0  0  0
  5 31  1  0  0  0  0
  6 25  1  0  0  0  0
  7  8  2  0  0  0  0
  7 32  1  0  0  0  0
  8  9  1  0  0  0  0
  8 33  1  0  0  0  0
  9 10  1  0  0  0  0
  9 11  2  0  0  0  0
 10 12  1  0  0  0  0
 10 14  1  0  0  0  0
 12 13  1  0  0  0  0
 12 34  1  0  0  0  0
 12 35  1  0  0  0  0
 13 14  1  0  0  0  0
 13 15  1  0  0  0  0
 13 36  1  0  0  0  0
 14 37  1  0  0  0  0
 14 38  1  0  0  0  0
 15 16  2  0  0  0  0
 15 17  1  0  0  0  0
 16 19  1  0  0  0  0
 16 24  1  0  0  0  0
 17 18  1  0  0  0  0
 18 19  2  0  0  0  0
 18 23  1  0  0  0  0
 19 20  1  0  0  0  0
 20 21  2  0  0  0  0
 20 39  1  0  0  0  0
 21 22  1  0  0  0  0
 21 40  1  0  0  0  0
 22 23  2  0  0  0  0
 22 41  1  0  0  0  0
 23 42  1  0  0  0  0
 24 43  1  0  0  0  0
 24 44  1  0  0  0  0
 24 45  1  0  0  0  0
 25 26  1  0  0  0  0
 25 46  1  0  0  0  0
 26 27  1  0  0  0  0
 26 28  2  0  0  0  0
 27 47  1  0  0  0  0
 27 48  1  0  0  0  0
 27 49  1  0  0  0  0
M  END
> <From>
www.bindingDB.org

> <BindingDB Reactant_set_id>
50280910

> <Ligand InChI>
InChI=1S/C22H21N3O3/c1-14-18-5-3-4-6-19(18)28-22(14)17-12-25(13-17)21(27)10-8-16-7-9-20(23-11-16)24-15(2)26/h3-11,17H,12-13H2,1-2H3,(H,23,24,26)/b10-8+

> <Ligand InChI Key>
GZCVUWFPWZQCHS-CSKARUKUSA-N

> <BindingDB MonomerID>
50052237

> <BindingDB Ligand Name>
CHEMBL3322724

> <Target Name>
Enoyl-[acyl-carrier-protein] reductase [NADPH] FabI [9-251]

> <Target Source Organism According to Curator or DataSource>
Staphylococcus aureus

> <Ki (nM)>


> <IC50 (nM)>
 161

> <Kd (nM)>


> <EC50 (nM)>


> <kon (M-1-s-1)>


> <koff (s-1)>


> <pH>


> <Temp C>


> <Curation/DataSource>
ChEMBL

> <Article DOI>
10.1016/j.ejmech.2014.07.036

> <BindingDB Entry DOI>
10.7270/Q2CJ8G45

> <PMID>
25036796

> <PubChem AID>


> <Patent Number>


> <Authors>
Takhi, M; Sreenivas, K; Reddy, CK; Munikumar, M; Praveena, K; Sudheer, P; Rao, BN; Ramakanth, G; Sivaranjani, J; Mulik, S; Reddy, YR; Narasimha Rao, K; Pallavi, R; Lakshminarasimhan, A; Panigrahi, SK; Antony, T; Abdullah, I; Lee, YK; Ramachandra, M; Yusof, R; Rahman, NA; Subramanya, H

> <Institution>
Aurigene Discovery Technologies Ltd

> <Link to Ligand in BindingDB>
http://www.bindingdb.org/bind/chemsearch/marvin/MolStructure.jsp?monomerid=50052237

> <Link to Ligand-Target Pair in BindingDB>
http://www.bindingdb.org/jsp/dbsearch/PrimarySearch_ki.jsp?energyterm=kJ/mole&tag=pol&polymerid=50004708&target=Enoyl-%5Bacyl-carrier-protein%5D+reductase+%5BNADPH%5D+FabI+%5B9-251%5D&column=ki&startPg=0&Increment=50&submit=Search

> <Link to Ligand-Target Pair in BindingDB>
http://www.bindingdb.org/jsp/dbsearch/PrimarySearch_ki.jsp?energyterm=kJ/mole&tag=r21&monomerid=50052237&enzyme=Enoyl-%5Bacyl-carrier-protein%5D+reductase+%5BNADPH%5D+FabI+%5B9-251%5D&column=ki&startPg=0&Increment=50&submit=Search

> <Ligand HET ID in PDB>


> <PDB ID(s) for Ligand-Target Complex>


> <PubChem CID of Ligand>
118710289

> <PubChem SID of Ligand>
103949133

> <ChEBI ID of Ligand>


> <ChEMBL ID of Ligand>
CHEMBL3322724

> <DrugBank ID of Ligand>


> <IUPHAR_GRAC ID of Ligand>


> <KEGG ID of Ligand>


> <ZINC ID of Ligand>
ZINC13756972

> <Number of Protein Chains in Target (bigger than 1 implies a multichain complex)>
1

> <BindingDB Target Chain Sequence>
YVIMGIANKRSIAFGVAKVLDQLGAKLVFTYRKERSRKELEKLLEQLNQPEAHLYQIDVQSDEEVINGFEQIGKDVGNIDGVYHSIAFANMEDLRGRFSETSREGFLLAQDISSYSLTIVAHEAKKLMPEGGSIVATTYLGGEFAVQNYNVMGVAKASLEANVKYLALDLGPDNIRVNAISAGPIRTLSAKGVGGFNTILKEIEERAPLKRNVDQVEVGKTAAYLLSDLSSGVTGENIHVDSG

> <PDB ID(s) of Target Chain>
3GNS,3GNT,3GR6,4ALI,4ALJ,4ALK,4ALL,4ALM,4ALN,4BNF,4BNG,4BNH,4BNI,4BNJ,4BNK,4BNL,4BNM,4BNN,4CUZ,4CV0,4CV1,4D41,4D42,4D43,4D44,4D45,4FS3,4NZ9,6TBB,6TBC,6YUR

> <UniProt (SwissProt) Recommended Name of Target Chain>
Enoyl-[acyl-carrier-protein] reductase [NADPH] FabI

> <UniProt (SwissProt) Entry Name of Target Chain>
FABI_STAAR

> <UniProt (SwissProt) Primary ID of Target Chain>
Q6GI75

> <UniProt (SwissProt) Secondary ID(s) of Target Chain>


> <UniProt (SwissProt) Alternative ID(s) of Target Chain>


> <UniProt (TrEMBL) Submitted Name of Target Chain>


> <UniProt (TrEMBL) Entry Name of Target Chain>


> <UniProt (TrEMBL) Primary ID of Target Chain>


> <UniProt (TrEMBL) Secondary ID(s) of Target Chain>


> <UniProt (TrEMBL) Alternative ID(s) of Target Chain>


$$$$
BindingDB_50280891_3D

Vconf v2.1
 51 54  0  0  0  0  0  0  0  0999 V2000
   20.2370  -13.0370   -0.2140 C   0  0  0  0  0  0  0  0  0  0  0
   21.2790  -13.1910    0.7270 C   0  0  0  0  0  0  0  0  0  0  0
   22.2820  -14.0740    0.5000 N   0  0  0  0  0  0  0  0  0  0  0
   20.2940  -13.8370   -1.3750 C   0  0  0  0  0  0  0  0  0  0  0
   21.3460  -14.7430   -1.5890 C   0  0  0  0  0  0  0  0  0  0  0
   22.3530  -14.8460   -0.6110 C   0  0  0  0  0  0  0  0  0  0  0
   23.3940  -15.6920   -0.7460 N   0  0  0  0  0  0  0  0  0  0  0
   23.5610  -16.4980   -1.8130 C   0  0  0  0  0  0  0  0  0  0  0
   22.6070  -16.5240   -2.9360 C   0  0  0  0  0  0  0  0  0  0  0
   21.3950  -15.5660   -2.8120 C   0  0  0  0  0  0  0  0  0  0  0
   24.5630  -17.2450   -1.8460 O   0  0  0  0  0  0  0  0  0  0  0
   19.1620  -12.1290   -0.0690 C   0  0  0  0  0  0  0  0  0  0  0
   18.9730  -11.2440    1.0000 C   0  0  0  0  0  0  0  0  0  0  0
   17.9060  -10.3340    1.0450 C   0  0  0  0  0  0  0  0  0  0  0
   16.9390  -10.2650    0.0360 N   0  0  0  0  0  0  0  0  0  0  0
   17.8220   -9.5370    2.0040 O   0  0  0  0  0  0  0  0  0  0  0
   15.8760  -11.1840   -0.3590 C   0  0  0  0  0  0  0  0  0  0  0
   15.6380  -10.2370   -1.5450 C   0  0  0  0  0  0  0  0  0  0  0
   16.6630   -9.2450   -0.9710 C   0  0  0  0  0  0  0  0  0  0  0
   15.9700  -10.8500   -2.9140 C   0  0  0  0  0  0  0  0  0  0  0
   17.3540  -11.2150   -2.9500 O   0  0  0  0  0  0  0  0  0  0  0
   17.9250  -11.8360   -4.0230 C   0  0  0  0  0  0  0  0  0  0  0
   19.2830  -11.5670   -4.3000 C   0  0  0  0  0  0  0  0  0  0  0
   19.9210  -12.2220   -5.3730 C   0  0  0  0  0  0  0  0  0  0  0
   19.2130  -13.1380   -6.1680 C   0  0  0  0  0  0  0  0  0  0  0
   17.8610  -13.4030   -5.8960 C   0  0  0  0  0  0  0  0  0  0  0
   17.2200  -12.7560   -4.8270 C   0  0  0  0  0  0  0  0  0  0  0
   20.0270  -10.5950   -3.4810 C   0  0  0  0  0  0  0  0  0  0  0
   21.2980  -12.6430    1.5870 H   0  0  0  0  0  0  0  0  0  0  0
   19.5630  -13.7590   -2.0860 H   0  0  0  0  0  0  0  0  0  0  0
   24.0580  -15.7200   -0.0400 H   0  0  0  0  0  0  0  0  0  0  0
   22.2320  -17.5430   -3.0350 H   0  0  0  0  0  0  0  0  0  0  0
   23.1530  -16.2740   -3.8460 H   0  0  0  0  0  0  0  0  0  0  0
   20.4840  -16.1650   -2.8570 H   0  0  0  0  0  0  0  0  0  0  0
   21.4010  -14.8980   -3.6760 H   0  0  0  0  0  0  0  0  0  0  0
   18.4730  -12.1030   -0.8230 H   0  0  0  0  0  0  0  0  0  0  0
   19.6390  -11.2310    1.7720 H   0  0  0  0  0  0  0  0  0  0  0
   16.1830  -12.1990   -0.6120 H   0  0  0  0  0  0  0  0  0  0  0
   15.0520  -11.2470    0.3530 H   0  0  0  0  0  0  0  0  0  0  0
   14.6190   -9.8530   -1.6040 H   0  0  0  0  0  0  0  0  0  0  0
   16.2450   -8.3210   -0.5710 H   0  0  0  0  0  0  0  0  0  0  0
   17.5020   -8.9900   -1.6200 H   0  0  0  0  0  0  0  0  0  0  0
   15.3320  -11.7230   -3.0590 H   0  0  0  0  0  0  0  0  0  0  0
   15.7640  -10.1160   -3.6940 H   0  0  0  0  0  0  0  0  0  0  0
   20.9020  -12.0310   -5.5780 H   0  0  0  0  0  0  0  0  0  0  0
   19.6800  -13.6080   -6.9440 H   0  0  0  0  0  0  0  0  0  0  0
   17.3460  -14.0700   -6.4720 H   0  0  0  0  0  0  0  0  0  0  0
   16.2430  -12.9680   -4.6310 H   0  0  0  0  0  0  0  0  0  0  0
   21.0560  -10.4890   -3.8270 H   0  0  0  0  0  0  0  0  0  0  0
   19.5370   -9.6220   -3.5370 H   0  0  0  0  0  0  0  0  0  0  0
   20.0410  -10.9250   -2.4430 H   0  0  0  0  0  0  0  0  0  0  0
  1  2  2  0  0  0  0
  1  4  1  0  0  0  0
  1 12  1  0  0  0  0
  2  3  1  0  0  0  0
  2 29  1  0  0  0  0
  3  6  2  0  0  0  0
  4  5  2  0  0  0  0
  4 30  1  0  0  0  0
  5  6  1  0  0  0  0
  5 10  1  0  0  0  0
  6  7  1  0  0  0  0
  7  8  1  0  0  0  0
  7 31  1  0  0  0  0
  8  9  1  0  0  0  0
  8 11  2  0  0  0  0
  9 10  1  0  0  0  0
  9 32  1  0  0  0  0
  9 33  1  0  0  0  0
 10 34  1  0  0  0  0
 10 35  1  0  0  0  0
 12 13  2  0  0  0  0
 12 36  1  0  0  0  0
 13 14  1  0  0  0  0
 13 37  1  0  0  0  0
 14 15  1  0  0  0  0
 14 16  2  0  0  0  0
 15 17  1  0  0  0  0
 15 19  1  0  0  0  0
 17 18  1  0  0  0  0
 17 38  1  0  0  0  0
 17 39  1  0  0  0  0
 18 19  1  0  0  0  0
 18 20  1  0  0  0  0
 18 40  1  0  0  0  0
 19 41  1  0  0  0  0
 19 42  1  0  0  0  0
 20 21  1  0  0  0  0
 20 43  1  0  0  0  0
 20 44  1  0  0  0  0
 21 22  1  0  0  0  0
 22 23  2  0  0  0  0
 22 27  1  0  0  0  0
 23 24  1  0  0  0  0
 23 28  1  0  0  0  0
 24 25  2  0  0  0  0
 24 45  1  0  0  0  0
 25 26  1  0  0  0  0
 25 46  1  0  0  0  0
 26 27  2  0  0  0  0
 26 47  1  0  0  0  0
 27 48  1  0  0  0  0
 28 49  1  0  0  0  0
 28 50  1  0  0  0  0
 28 51  1  0  0  0  0
M  END
> <From>
www.bindingDB.org

> <BindingDB Reactant_set_id>
50280891

> <Ligand InChI>
InChI=1S/C22H23N3O3/c1-15-4-2-3-5-19(15)28-14-17-12-25(13-17)21(27)9-6-16-10-18-7-8-20(26)24-22(18)23-11-16/h2-6,9-11,17H,7-8,12-14H2,1H3,(H,23,24,26)/b9-6+

> <Ligand InChI Key>
KDPFLGZZXOFMBA-RMKNXTFCSA-N

> <BindingDB MonomerID>
50052227

> <BindingDB Ligand Name>
CHEMBL3322710

> <Target Name>
Enoyl-[acyl-carrier-protein] reductase [NADPH] FabI [9-251]

> <Target Source Organism According to Curator or DataSource>
Staphylococcus aureus

> <Ki (nM)>


> <IC50 (nM)>
 177

> <Kd (nM)>


> <EC50 (nM)>


> <kon (M-1-s-1)>


> <koff (s-1)>


> <pH>


> <Temp C>


> <Curation/DataSource>
ChEMBL

> <Article DOI>
10.1016/j.ejmech.2014.07.036

> <BindingDB Entry DOI>
10.7270/Q2CJ8G45

> <PMID>
25036796

> <PubChem AID>


> <Patent Number>


> <Authors>
Takhi, M; Sreenivas, K; Reddy, CK; Munikumar, M; Praveena, K; Sudheer, P; Rao, BN; Ramakanth, G; Sivaranjani, J; Mulik, S; Reddy, YR; Narasimha Rao, K; Pallavi, R; Lakshminarasimhan, A; Panigrahi, SK; Antony, T; Abdullah, I; Lee, YK; Ramachandra, M; Yusof, R; Rahman, NA; Subramanya, H

> <Institution>
Aurigene Discovery Technologies Ltd

> <Link to Ligand in BindingDB>
http://www.bindingdb.org/bind/chemsearch/marvin/MolStructure.jsp?monomerid=50052227

> <Link to Ligand-Target Pair in BindingDB>
http://www.bindingdb.org/jsp/dbsearch/PrimarySearch_ki.jsp?energyterm=kJ/mole&tag=pol&polymerid=50004708&target=Enoyl-%5Bacyl-carrier-protein%5D+reductase+%5BNADPH%5D+FabI+%5B9-251%5D&column=ki&startPg=0&Increment=50&submit=Search

> <Link to Ligand-Target Pair in BindingDB>
http://www.bindingdb.org/jsp/dbsearch/PrimarySearch_ki.jsp?energyterm=kJ/mole&tag=r21&monomerid=50052227&enzyme=Enoyl-%5Bacyl-carrier-protein%5D+reductase+%5BNADPH%5D+FabI+%5B9-251%5D&column=ki&startPg=0&Increment=50&submit=Search

> <Ligand HET ID in PDB>


> <PDB ID(s) for Ligand-Target Complex>


> <PubChem CID of Ligand>
118710276

> <PubChem SID of Ligand>
103949123

> <ChEBI ID of Ligand>


> <ChEMBL ID of Ligand>
CHEMBL3322710

> <DrugBank ID of Ligand>


> <IUPHAR_GRAC ID of Ligand>


> <KEGG ID of Ligand>


> <ZINC ID of Ligand>
ZINC13757022

> <Number of Protein Chains in Target (bigger than 1 implies a multichain complex)>
1

> <BindingDB Target Chain Sequence>
YVIMGIANKRSIAFGVAKVLDQLGAKLVFTYRKERSRKELEKLLEQLNQPEAHLYQIDVQSDEEVINGFEQIGKDVGNIDGVYHSIAFANMEDLRGRFSETSREGFLLAQDISSYSLTIVAHEAKKLMPEGGSIVATTYLGGEFAVQNYNVMGVAKASLEANVKYLALDLGPDNIRVNAISAGPIRTLSAKGVGGFNTILKEIEERAPLKRNVDQVEVGKTAAYLLSDLSSGVTGENIHVDSG

> <PDB ID(s) of Target Chain>
3GNS,3GNT,3GR6,4ALI,4ALJ,4ALK,4ALL,4ALM,4ALN,4BNF,4BNG,4BNH,4BNI,4BNJ,4BNK,4BNL,4BNM,4BNN,4CUZ,4CV0,4CV1,4D41,4D42,4D43,4D44,4D45,4FS3,4NZ9,6TBB,6TBC,6YUR

> <UniProt (SwissProt) Recommended Name of Target Chain>
Enoyl-[acyl-carrier-protein] reductase [NADPH] FabI

> <UniProt (SwissProt) Entry Name of Target Chain>
FABI_STAAR

> <UniProt (SwissProt) Primary ID of Target Chain>
Q6GI75

> <UniProt (SwissProt) Secondary ID(s) of Target Chain>


> <UniProt (SwissProt) Alternative ID(s) of Target Chain>


> <UniProt (TrEMBL) Submitted Name of Target Chain>


> <UniProt (TrEMBL) Entry Name of Target Chain>


> <UniProt (TrEMBL) Primary ID of Target Chain>


> <UniProt (TrEMBL) Secondary ID(s) of Target Chain>


> <UniProt (TrEMBL) Alternative ID(s) of Target Chain>


$$$$
11

Vconf v2.0 Academic SN VC001-00000579
 36 37  0  0  0  0  0  0  0  0999 V2000
   -2.9430    3.0200    0.6890 C   0  0  0  0  0  0  0  0  0  0  0
   -4.1470    2.3000    0.6060 C   0  0  0  0  0  0  0  0  0  0  0
   -4.1340    0.8940    0.5140 C   0  0  0  0  0  0  0  0  0  0  0
   -2.8970    0.2180    0.5190 C   0  0  0  0  0  0  0  0  0  0  0
   -1.6930    0.9380    0.5990 C   0  0  0  0  0  0  0  0  0  0  0
   -1.7060    2.3470    0.6700 C   0  0  0  0  0  0  0  0  0  0  0
   -2.9780    4.3670    0.7800 O   0  0  0  0  0  0  0  0  0  0  0
   -0.5670    3.1030    0.7630 O   0  0  0  0  0  0  0  0  0  0  0
    0.6200    2.8060    0.1430 C   0  0  0  0  0  0  0  0  0  0  0
    1.8340    2.9820    0.8430 C   0  0  0  0  0  0  0  0  0  0  0
    0.6580    2.3720   -1.2000 C   0  0  0  0  0  0  0  0  0  0  0
    1.8820    2.0930   -1.8290 C   0  0  0  0  0  0  0  0  0  0  0
    3.0880    2.2550   -1.1240 C   0  0  0  0  0  0  0  0  0  0  0
    3.0610    2.7020    0.2100 C   0  0  0  0  0  0  0  0  0  0  0
    1.8460    3.5230    2.4490 Cl  0  0  0  0  0  0  0  0  0  0  0
    4.5630    1.9180   -1.8790 Cl  0  0  0  0  0  0  0  0  0  0  0
   -5.4030    0.1430    0.4200 C   0  0  0  0  0  0  0  0  0  0  0
   -6.1750    0.4200   -0.8900 C   0  0  0  0  0  0  0  0  0  0  0
   -5.3970   -0.0790   -2.1210 C   0  0  0  0  0  0  0  0  0  0  0
   -7.5410   -0.2820   -0.8370 C   0  0  0  0  0  0  0  0  0  0  0
   -5.0350    2.8020    0.6140 H   0  0  0  0  0  0  0  0  0  0  0
   -2.8700   -0.8000    0.4610 H   0  0  0  0  0  0  0  0  0  0  0
   -0.8070    0.4340    0.6070 H   0  0  0  0  0  0  0  0  0  0  0
   -2.0920    4.7840    0.8400 H   0  0  0  0  0  0  0  0  0  0  0
   -0.2110    2.2610   -1.7240 H   0  0  0  0  0  0  0  0  0  0  0
    1.8860    1.7770   -2.8000 H   0  0  0  0  0  0  0  0  0  0  0
    3.9380    2.8240    0.7210 H   0  0  0  0  0  0  0  0  0  0  0
   -5.2150   -0.9310    0.4850 H   0  0  0  0  0  0  0  0  0  0  0
   -6.0330    0.4220    1.2670 H   0  0  0  0  0  0  0  0  0  0  0
   -6.3500    1.4920   -0.9960 H   0  0  0  0  0  0  0  0  0  0  0
   -5.9890    0.0870   -3.0210 H   0  0  0  0  0  0  0  0  0  0  0
   -4.4570    0.4650   -2.2140 H   0  0  0  0  0  0  0  0  0  0  0
   -5.1870   -1.1450   -2.0210 H   0  0  0  0  0  0  0  0  0  0  0
   -8.0950   -0.0760   -1.7540 H   0  0  0  0  0  0  0  0  0  0  0
   -7.4030   -1.3590   -0.7350 H   0  0  0  0  0  0  0  0  0  0  0
   -8.1120    0.0900    0.0130 H   0  0  0  0  0  0  0  0  0  0  0
  1  2  2  0  0  0  0
  1  6  1  0  0  0  0
  1  7  1  0  0  0  0
  2  3  1  0  0  0  0
  2 21  1  0  0  0  0
  3  4  2  0  0  0  0
  3 17  1  0  0  0  0
  4  5  1  0  0  0  0
  4 22  1  0  0  0  0
  5  6  2  0  0  0  0
  5 23  1  0  0  0  0
  6  8  1  0  0  0  0
  7 24  1  0  0  0  0
  8  9  1  0  0  0  0
  9 10  2  0  0  0  0
  9 11  1  0  0  0  0
 10 14  1  0  0  0  0
 10 15  1  0  0  0  0
 11 12  2  0  0  0  0
 11 25  1  0  0  0  0
 12 13  1  0  0  0  0
 12 26  1  0  0  0  0
 13 14  2  0  0  0  0
 13 16  1  0  0  0  0
 14 27  1  0  0  0  0
 17 18  1  0  0  0  0
 17 28  1  0  0  0  0
 17 29  1  0  0  0  0
 18 19  1  0  0  0  0
 18 20  1  0  0  0  0
 18 30  1  0  0  0  0
 19 31  1  0  0  0  0
 19 32  1  0  0  0  0
 19 33  1  0  0  0  0
 20 34  1  0  0  0  0
 20 35  1  0  0  0  0
 20 36  1  0  0  0  0
M  END
> <From>
www.bindingDB.org

> <BindingDB Reactant_set_id>
46063

> <Ligand InChI>
InChI=1S/C16H16Cl2O2/c1-10(2)7-11-3-5-16(14(19)8-11)20-15-6-4-12(17)9-13(15)18/h3-6,8-10,19H,7H2,1-2H3

> <Ligand InChI Key>
ZPZSZEVICIKUBD-UHFFFAOYSA-N

> <BindingDB MonomerID>
25410

> <BindingDB Ligand Name>
2-(2,4-dichlorophenoxy)-5-(2-methylpropyl)phenol::Triclosan derivative, 11

> <Target Name>
Enoyl-ACP reductase

> <Target Source Organism According to Curator or DataSource>
Plasmodium falciparum

> <Ki (nM)>


> <IC50 (nM)>
 180

> <Kd (nM)>


> <EC50 (nM)>


> <kon (M-1-s-1)>


> <koff (s-1)>


> <pH>
7.9

> <Temp C>
25.00

> <Curation/DataSource>
Curated from the literature by BindingDB

> <Article DOI>
10.1074/jbc.M701813200

> <BindingDB Entry DOI>
10.7270/Q22V2DFD

> <PMID>
17567585

> <PubChem AID>
aid1798551

> <Patent Number>


> <Authors>
Freundlich, JS; Wang, F; Tsai, HC; Kuo, M; Shieh, HM; Anderson, JW; Nkrumah, LJ; Valderramos, JC; Yu, M; Kumar, TR; Valderramos, SG; Jacobs, WR; Schiehser, GA; Jacobus, DP; Fidock, DA; Sacchettini, JC

> <Institution>
Jacobus Pharmaceutical Company

> <Link to Ligand in BindingDB>
http://www.bindingdb.org/bind/chemsearch/marvin/MolStructure.jsp?monomerid=25410

> <Link to Ligand-Target Pair in BindingDB>
http://www.bindingdb.org/jsp/dbsearch/PrimarySearch_ki.jsp?energyterm=kJ/mole&tag=pol&polymerid=2820&target=Enoyl-ACP+reductase&column=ki&startPg=0&Increment=50&submit=Search

> <Link to Ligand-Target Pair in BindingDB>
http://www.bindingdb.org/jsp/dbsearch/PrimarySearch_ki.jsp?energyterm=kJ/mole&tag=r21&monomerid=25410&enzyme=Enoyl-ACP+reductase&column=ki&startPg=0&Increment=50&submit=Search

> <Ligand HET ID in PDB>


> <PDB ID(s) for Ligand-Target Complex>


> <PubChem CID of Ligand>
25023961

> <PubChem SID of Ligand>
56374549

> <ChEBI ID of Ligand>


> <ChEMBL ID of Ligand>


> <DrugBank ID of Ligand>


> <IUPHAR_GRAC ID of Ligand>


> <KEGG ID of Ligand>


> <ZINC ID of Ligand>
ZINC29061421

> <Number of Protein Chains in Target (bigger than 1 implies a multichain complex)>
1

> <BindingDB Target Chain Sequence>
MNKISQRLLFLFLHFYTTVCFIQNNTQKTFHNVLQNEQIRGKEKAFYRKEKRENIFIGNK
MKHVHNMNNTHNNNHYMEKEEQDASNINKIKEENKNEDICFIAGIGDTNGYGWGIAKELS
KRNVKIIFGIWPPVYNIFMKNYKNGKFDNDMIIDKDKKMNILDMLPFDASFDTANDIDEE
TKNNKRYNMLQNYTIEDVANLIHQKYGKINMLVHSLANAKEVQKDLLNTSRKGYLDALSK
SSYSLISLCKYFVNIMKPQSSIISLTYHASQKVVPGYGGGMSSAKAALESDTRVLAYHLG
RNYNIRINTISAGPLKSRAATAINKLNNTYENNTNQNKNRNRHDVHNIMNNSGEKEEKKI
SASQNYTFIDYAIEYSEKYAPLRQKLLSTDIGSVASFLLSRESRAITGQTIYVDNGLNIM
FLPDDIYRNENE

> <PDB ID(s) of Target Chain>
1NHG,1NHW,1NNU,1UH5,1V35,2FOI,2NQ8,3LSY,3LT0,3LT1,3LT2,3LT4

> <UniProt (SwissProt) Recommended Name of Target Chain>


> <UniProt (SwissProt) Entry Name of Target Chain>


> <UniProt (SwissProt) Primary ID of Target Chain>


> <UniProt (SwissProt) Secondary ID(s) of Target Chain>


> <UniProt (SwissProt) Alternative ID(s) of Target Chain>


> <UniProt (TrEMBL) Submitted Name of Target Chain>
Enoyl-ACP reductase

> <UniProt (TrEMBL) Entry Name of Target Chain>
Q9BJJ9_PLAFA

> <UniProt (TrEMBL) Primary ID of Target Chain>
Q9BJJ9

> <UniProt (TrEMBL) Secondary ID(s) of Target Chain>


> <UniProt (TrEMBL) Alternative ID(s) of Target Chain>


$$$$
18

Vconf v2.0 Academic SN VC001-00000579
 37 39  0  0  0  0  0  0  0  0999 V2000
   -3.0180    3.1640    0.7240 C   0  0  0  0  0  0  0  0  0  0  0
   -4.2410    2.4770    0.6440 C   0  0  0  0  0  0  0  0  0  0  0
   -4.2860    1.0770    0.4370 C   0  0  0  0  0  0  0  0  0  0  0
   -3.0520    0.3930    0.3180 C   0  0  0  0  0  0  0  0  0  0  0
   -1.8280    1.0780    0.3970 C   0  0  0  0  0  0  0  0  0  0  0
   -1.8010    2.4740    0.5900 C   0  0  0  0  0  0  0  0  0  0  0
   -3.0170    4.4990    0.9320 O   0  0  0  0  0  0  0  0  0  0  0
   -0.6430    3.1980    0.6970 O   0  0  0  0  0  0  0  0  0  0  0
    0.5230    2.9160    0.0320 C   0  0  0  0  0  0  0  0  0  0  0
    1.7560    3.0110    0.7150 C   0  0  0  0  0  0  0  0  0  0  0
    0.5220    2.5830   -1.3390 C   0  0  0  0  0  0  0  0  0  0  0
    1.7250    2.3240   -2.0150 C   0  0  0  0  0  0  0  0  0  0  0
    2.9500    2.4070   -1.3290 C   0  0  0  0  0  0  0  0  0  0  0
    2.9630    2.7530    0.0350 C   0  0  0  0  0  0  0  0  0  0  0
    1.8150    3.4270    2.3570 Cl  0  0  0  0  0  0  0  0  0  0  0
   -5.5310    0.3800    0.3590 C   0  0  0  0  0  0  0  0  0  0  0
   -6.6800    0.9880   -0.2030 C   0  0  0  0  0  0  0  0  0  0  0
   -7.9050    0.3050   -0.2780 C   0  0  0  0  0  0  0  0  0  0  0
   -8.0180   -1.0090    0.2090 C   0  0  0  0  0  0  0  0  0  0  0
   -6.8870   -1.6300    0.7700 C   0  0  0  0  0  0  0  0  0  0  0
   -5.6630   -0.9440    0.8430 C   0  0  0  0  0  0  0  0  0  0  0
    4.4010    2.0980   -2.1420 Cl  0  0  0  0  0  0  0  0  0  0  0
   -9.3080   -1.7120    0.1240 C   0  0  0  0  0  0  0  0  0  0  0
   -5.1040    3.0120    0.7530 H   0  0  0  0  0  0  0  0  0  0  0
   -3.0320   -0.6150    0.1620 H   0  0  0  0  0  0  0  0  0  0  0
   -0.9550    0.5560    0.3170 H   0  0  0  0  0  0  0  0  0  0  0
   -2.1190    4.8910    0.9870 H   0  0  0  0  0  0  0  0  0  0  0
   -0.3600    2.5310   -1.8500 H   0  0  0  0  0  0  0  0  0  0  0
    1.7010    2.0800   -3.0070 H   0  0  0  0  0  0  0  0  0  0  0
    3.8530    2.8180    0.5340 H   0  0  0  0  0  0  0  0  0  0  0
   -6.6330    1.9380   -0.5770 H   0  0  0  0  0  0  0  0  0  0  0
   -8.7160    0.7680   -0.6900 H   0  0  0  0  0  0  0  0  0  0  0
   -6.9520   -2.5830    1.1290 H   0  0  0  0  0  0  0  0  0  0  0
   -4.8670   -1.4210    1.2690 H   0  0  0  0  0  0  0  0  0  0  0
   -9.2360   -2.7190    0.5380 H   0  0  0  0  0  0  0  0  0  0  0
  -10.0630   -1.1580    0.6840 H   0  0  0  0  0  0  0  0  0  0  0
   -9.6180   -1.7840   -0.9190 H   0  0  0  0  0  0  0  0  0  0  0
  1  2  2  0  0  0  0
  1  6  1  0  0  0  0
  1  7  1  0  0  0  0
  2  3  1  0  0  0  0
  2 24  1  0  0  0  0
  3  4  2  0  0  0  0
  3 16  1  0  0  0  0
  4  5  1  0  0  0  0
  4 25  1  0  0  0  0
  5  6  2  0  0  0  0
  5 26  1  0  0  0  0
  6  8  1  0  0  0  0
  7 27  1  0  0  0  0
  8  9  1  0  0  0  0
  9 10  2  0  0  0  0
  9 11  1  0  0  0  0
 10 14  1  0  0  0  0
 10 15  1  0  0  0  0
 11 12  2  0  0  0  0
 11 28  1  0  0  0  0
 12 13  1  0  0  0  0
 12 29  1  0  0  0  0
 13 14  2  0  0  0  0
 13 22  1  0  0  0  0
 14 30  1  0  0  0  0
 16 17  1  0  0  0  0
 16 21  2  0  0  0  0
 17 18  2  0  0  0  0
 17 31  1  0  0  0  0
 18 19  1  0  0  0  0
 18 32  1  0  0  0  0
 19 20  2  0  0  0  0
 19 23  1  0  0  0  0
 20 21  1  0  0  0  0
 20 33  1  0  0  0  0
 21 34  1  0  0  0  0
 23 35  1  0  0  0  0
 23 36  1  0  0  0  0
 23 37  1  0  0  0  0
M  END
> <From>
www.bindingDB.org

> <BindingDB Reactant_set_id>
46070

> <Ligand InChI>
InChI=1S/C19H14Cl2O2/c1-12-2-4-13(5-3-12)14-6-8-19(17(22)10-14)23-18-9-7-15(20)11-16(18)21/h2-11,22H,1H3

> <Ligand InChI Key>
MJKDRJABBJYCNP-UHFFFAOYSA-N

> <BindingDB MonomerID>
25417

> <BindingDB Ligand Name>
2-(2,4-dichlorophenoxy)-5-(4-methylphenyl)phenol::Triclosan derivative, 18

> <Target Name>
Enoyl-ACP reductase

> <Target Source Organism According to Curator or DataSource>
Plasmodium falciparum

> <Ki (nM)>


> <IC50 (nM)>
 190

> <Kd (nM)>


> <EC50 (nM)>


> <kon (M-1-s-1)>


> <koff (s-1)>


> <pH>
7.9

> <Temp C>
25.00

> <Curation/DataSource>
Curated from the literature by BindingDB

> <Article DOI>
10.1074/jbc.M701813200

> <BindingDB Entry DOI>
10.7270/Q22V2DFD

> <PMID>
17567585

> <PubChem AID>
aid1798551

> <Patent Number>


> <Authors>
Freundlich, JS; Wang, F; Tsai, HC; Kuo, M; Shieh, HM; Anderson, JW; Nkrumah, LJ; Valderramos, JC; Yu, M; Kumar, TR; Valderramos, SG; Jacobs, WR; Schiehser, GA; Jacobus, DP; Fidock, DA; Sacchettini, JC

> <Institution>
Jacobus Pharmaceutical Company

> <Link to Ligand in BindingDB>
http://www.bindingdb.org/bind/chemsearch/marvin/MolStructure.jsp?monomerid=25417

> <Link to Ligand-Target Pair in BindingDB>
http://www.bindingdb.org/jsp/dbsearch/PrimarySearch_ki.jsp?energyterm=kJ/mole&tag=pol&polymerid=2820&target=Enoyl-ACP+reductase&column=ki&startPg=0&Increment=50&submit=Search

> <Link to Ligand-Target Pair in BindingDB>
http://www.bindingdb.org/jsp/dbsearch/PrimarySearch_ki.jsp?energyterm=kJ/mole&tag=r21&monomerid=25417&enzyme=Enoyl-ACP+reductase&column=ki&startPg=0&Increment=50&submit=Search

> <Ligand HET ID in PDB>


> <PDB ID(s) for Ligand-Target Complex>


> <PubChem CID of Ligand>
25023967

> <PubChem SID of Ligand>
56374556

> <ChEBI ID of Ligand>


> <ChEMBL ID of Ligand>


> <DrugBank ID of Ligand>


> <IUPHAR_GRAC ID of Ligand>


> <KEGG ID of Ligand>


> <ZINC ID of Ligand>
ZINC29061104

> <Number of Protein Chains in Target (bigger than 1 implies a multichain complex)>
1

> <BindingDB Target Chain Sequence>
MNKISQRLLFLFLHFYTTVCFIQNNTQKTFHNVLQNEQIRGKEKAFYRKEKRENIFIGNK
MKHVHNMNNTHNNNHYMEKEEQDASNINKIKEENKNEDICFIAGIGDTNGYGWGIAKELS
KRNVKIIFGIWPPVYNIFMKNYKNGKFDNDMIIDKDKKMNILDMLPFDASFDTANDIDEE
TKNNKRYNMLQNYTIEDVANLIHQKYGKINMLVHSLANAKEVQKDLLNTSRKGYLDALSK
SSYSLISLCKYFVNIMKPQSSIISLTYHASQKVVPGYGGGMSSAKAALESDTRVLAYHLG
RNYNIRINTISAGPLKSRAATAINKLNNTYENNTNQNKNRNRHDVHNIMNNSGEKEEKKI
SASQNYTFIDYAIEYSEKYAPLRQKLLSTDIGSVASFLLSRESRAITGQTIYVDNGLNIM
FLPDDIYRNENE

> <PDB ID(s) of Target Chain>
1NHG,1NHW,1NNU,1UH5,1V35,2FOI,2NQ8,3LSY,3LT0,3LT1,3LT2,3LT4

> <UniProt (SwissProt) Recommended Name of Target Chain>


> <UniProt (SwissProt) Entry Name of Target Chain>


> <UniProt (SwissProt) Primary ID of Target Chain>


> <UniProt (SwissProt) Secondary ID(s) of Target Chain>


> <UniProt (SwissProt) Alternative ID(s) of Target Chain>


> <UniProt (TrEMBL) Submitted Name of Target Chain>
Enoyl-ACP reductase

> <UniProt (TrEMBL) Entry Name of Target Chain>
Q9BJJ9_PLAFA

> <UniProt (TrEMBL) Primary ID of Target Chain>
Q9BJJ9

> <UniProt (TrEMBL) Secondary ID(s) of Target Chain>


> <UniProt (TrEMBL) Alternative ID(s) of Target Chain>


$$$$
2

Vconf v2.0 Academic SN VC001-00000579
 27 28  0  0  0  0  0  0  0  0999 V2000
   -2.9780    3.1150    1.0640 C   0  0  0  0  0  0  0  0  0  0  0
   -4.2440    2.5090    1.0090 C   0  0  0  0  0  0  0  0  0  0  0
   -4.3680    1.1470    0.6730 C   0  0  0  0  0  0  0  0  0  0  0
   -3.2070    0.3970    0.4010 C   0  0  0  0  0  0  0  0  0  0  0
   -1.9410    1.0030    0.4590 C   0  0  0  0  0  0  0  0  0  0  0
   -1.8160    2.3720    0.7770 C   0  0  0  0  0  0  0  0  0  0  0
   -2.8790    4.4220    1.3920 O   0  0  0  0  0  0  0  0  0  0  0
   -0.6120    3.0200    0.8670 O   0  0  0  0  0  0  0  0  0  0  0
    0.5010    2.7260    0.1210 C   0  0  0  0  0  0  0  0  0  0  0
    1.7710    2.7210    0.7400 C   0  0  0  0  0  0  0  0  0  0  0
    0.4120    2.4780   -1.2650 C   0  0  0  0  0  0  0  0  0  0  0
    1.5630    2.2030   -2.0200 C   0  0  0  0  0  0  0  0  0  0  0
    2.8240    2.1840   -1.3980 C   0  0  0  0  0  0  0  0  0  0  0
    2.9260    2.4460   -0.0190 C   0  0  0  0  0  0  0  0  0  0  0
    1.9370    3.0360    2.3960 Cl  0  0  0  0  0  0  0  0  0  0  0
    4.2130    1.8530   -2.3050 Cl  0  0  0  0  0  0  0  0  0  0  0
   -5.7020    0.5290    0.6160 C   0  0  0  0  0  0  0  0  0  0  0
   -5.0780    3.0620    1.2140 H   0  0  0  0  0  0  0  0  0  0  0
   -3.2810   -0.5930    0.1640 H   0  0  0  0  0  0  0  0  0  0  0
   -1.1090    0.4440    0.2710 H   0  0  0  0  0  0  0  0  0  0  0
   -1.9580    4.7580    1.4140 H   0  0  0  0  0  0  0  0  0  0  0
   -0.4970    2.5000   -1.7290 H   0  0  0  0  0  0  0  0  0  0  0
    1.4750    2.0210   -3.0210 H   0  0  0  0  0  0  0  0  0  0  0
    3.8430    2.4380    0.4320 H   0  0  0  0  0  0  0  0  0  0  0
   -5.6370   -0.5250    0.3420 H   0  0  0  0  0  0  0  0  0  0  0
   -6.1830    0.6070    1.5920 H   0  0  0  0  0  0  0  0  0  0  0
   -6.3130    1.0460   -0.1250 H   0  0  0  0  0  0  0  0  0  0  0
  1  2  2  0  0  0  0
  1  6  1  0  0  0  0
  1  7  1  0  0  0  0
  2  3  1  0  0  0  0
  2 18  1  0  0  0  0
  3  4  2  0  0  0  0
  3 17  1  0  0  0  0
  4  5  1  0  0  0  0
  4 19  1  0  0  0  0
  5  6  2  0  0  0  0
  5 20  1  0  0  0  0
  6  8  1  0  0  0  0
  7 21  1  0  0  0  0
  8  9  1  0  0  0  0
  9 10  2  0  0  0  0
  9 11  1  0  0  0  0
 10 14  1  0  0  0  0
 10 15  1  0  0  0  0
 11 12  2  0  0  0  0
 11 22  1  0  0  0  0
 12 13  1  0  0  0  0
 12 23  1  0  0  0  0
 13 14  2  0  0  0  0
 13 16  1  0  0  0  0
 14 24  1  0  0  0  0
 17 25  1  0  0  0  0
 17 26  1  0  0  0  0
 17 27  1  0  0  0  0
M  END
> <From>
www.bindingDB.org

> <BindingDB Reactant_set_id>
46054

> <Ligand InChI>
InChI=1S/C13H10Cl2O2/c1-8-2-4-13(11(16)6-8)17-12-5-3-9(14)7-10(12)15/h2-7,16H,1H3

> <Ligand InChI Key>
FHTKTADYDYDEMS-UHFFFAOYSA-N

> <BindingDB MonomerID>
25401

> <BindingDB Ligand Name>
2-(2,4-dichlorophenoxy)-5-methylphenol::Triclosan derivative, 2

> <Target Name>
Enoyl-ACP reductase

> <Target Source Organism According to Curator or DataSource>
Plasmodium falciparum

> <Ki (nM)>


> <IC50 (nM)>
 200

> <Kd (nM)>


> <EC50 (nM)>


> <kon (M-1-s-1)>


> <koff (s-1)>


> <pH>
7.9

> <Temp C>
25.00

> <Curation/DataSource>
Curated from the literature by BindingDB

> <Article DOI>
10.1074/jbc.M701813200

> <BindingDB Entry DOI>
10.7270/Q22V2DFD

> <PMID>
17567585

> <PubChem AID>
aid1798551

> <Patent Number>


> <Authors>
Freundlich, JS; Wang, F; Tsai, HC; Kuo, M; Shieh, HM; Anderson, JW; Nkrumah, LJ; Valderramos, JC; Yu, M; Kumar, TR; Valderramos, SG; Jacobs, WR; Schiehser, GA; Jacobus, DP; Fidock, DA; Sacchettini, JC

> <Institution>
Jacobus Pharmaceutical Company

> <Link to Ligand in BindingDB>
http://www.bindingdb.org/bind/chemsearch/marvin/MolStructure.jsp?monomerid=25401

> <Link to Ligand-Target Pair in BindingDB>
http://www.bindingdb.org/jsp/dbsearch/PrimarySearch_ki.jsp?energyterm=kJ/mole&tag=pol&polymerid=2820&target=Enoyl-ACP+reductase&column=ki&startPg=0&Increment=50&submit=Search

> <Link to Ligand-Target Pair in BindingDB>
http://www.bindingdb.org/jsp/dbsearch/PrimarySearch_ki.jsp?energyterm=kJ/mole&tag=r21&monomerid=25401&enzyme=Enoyl-ACP+reductase&column=ki&startPg=0&Increment=50&submit=Search

> <Ligand HET ID in PDB>


> <PDB ID(s) for Ligand-Target Complex>


> <PubChem CID of Ligand>
22947105

> <PubChem SID of Ligand>
56374540

> <ChEBI ID of Ligand>


> <ChEMBL ID of Ligand>


> <DrugBank ID of Ligand>


> <IUPHAR_GRAC ID of Ligand>


> <KEGG ID of Ligand>


> <ZINC ID of Ligand>
ZINC29059794

> <Number of Protein Chains in Target (bigger than 1 implies a multichain complex)>
1

> <BindingDB Target Chain Sequence>
MNKISQRLLFLFLHFYTTVCFIQNNTQKTFHNVLQNEQIRGKEKAFYRKEKRENIFIGNK
MKHVHNMNNTHNNNHYMEKEEQDASNINKIKEENKNEDICFIAGIGDTNGYGWGIAKELS
KRNVKIIFGIWPPVYNIFMKNYKNGKFDNDMIIDKDKKMNILDMLPFDASFDTANDIDEE
TKNNKRYNMLQNYTIEDVANLIHQKYGKINMLVHSLANAKEVQKDLLNTSRKGYLDALSK
SSYSLISLCKYFVNIMKPQSSIISLTYHASQKVVPGYGGGMSSAKAALESDTRVLAYHLG
RNYNIRINTISAGPLKSRAATAINKLNNTYENNTNQNKNRNRHDVHNIMNNSGEKEEKKI
SASQNYTFIDYAIEYSEKYAPLRQKLLSTDIGSVASFLLSRESRAITGQTIYVDNGLNIM
FLPDDIYRNENE

> <PDB ID(s) of Target Chain>
1NHG,1NHW,1NNU,1UH5,1V35,2FOI,2NQ8,3LSY,3LT0,3LT1,3LT2,3LT4

> <UniProt (SwissProt) Recommended Name of Target Chain>


> <UniProt (SwissProt) Entry Name of Target Chain>


> <UniProt (SwissProt) Primary ID of Target Chain>


> <UniProt (SwissProt) Secondary ID(s) of Target Chain>


> <UniProt (SwissProt) Alternative ID(s) of Target Chain>


> <UniProt (TrEMBL) Submitted Name of Target Chain>
Enoyl-ACP reductase

> <UniProt (TrEMBL) Entry Name of Target Chain>
Q9BJJ9_PLAFA

> <UniProt (TrEMBL) Primary ID of Target Chain>
Q9BJJ9

> <UniProt (TrEMBL) Secondary ID(s) of Target Chain>


> <UniProt (TrEMBL) Alternative ID(s) of Target Chain>


$$$$
Triclosan

Vconf v2.0 Academic SN VC001-00000579
 24 25  0  0  0  0  0  0  0  0999 V2000
   -0.6720    1.6050    0.1830 C   0  0  0  0  0  0  0  0  0  0  0
   -1.8600    0.9890   -0.2480 C   0  0  0  0  0  0  0  0  0  0  0
   -2.2830   -0.2180    0.3410 C   0  0  0  0  0  0  0  0  0  0  0
   -1.5080   -0.8050    1.3590 C   0  0  0  0  0  0  0  0  0  0  0
   -0.3220   -0.1860    1.7880 C   0  0  0  0  0  0  0  0  0  0  0
    0.0990    1.0310    1.2110 C   0  0  0  0  0  0  0  0  0  0  0
   -0.2750    2.7600   -0.3940 O   0  0  0  0  0  0  0  0  0  0  0
   -3.7110   -0.9610   -0.1770 Cl  0  0  0  0  0  0  0  0  0  0  0
    1.2550    1.6720    1.5730 O   0  0  0  0  0  0  0  0  0  0  0
    1.7630    1.7180    2.8460 C   0  0  0  0  0  0  0  0  0  0  0
    3.1580    1.6120    3.0410 C   0  0  0  0  0  0  0  0  0  0  0
    0.9270    1.9230    3.9650 C   0  0  0  0  0  0  0  0  0  0  0
    1.4670    1.9970    5.2590 C   0  0  0  0  0  0  0  0  0  0  0
    2.8550    1.8780    5.4510 C   0  0  0  0  0  0  0  0  0  0  0
    3.6980    1.6880    4.3400 C   0  0  0  0  0  0  0  0  0  0  0
    4.2090    1.3890    1.7310 Cl  0  0  0  0  0  0  0  0  0  0  0
    3.5060    1.9710    7.0090 Cl  0  0  0  0  0  0  0  0  0  0  0
   -2.4100    1.4240   -0.9900 H   0  0  0  0  0  0  0  0  0  0  0
   -1.8000   -1.6840    1.7910 H   0  0  0  0  0  0  0  0  0  0  0
    0.2370   -0.6260    2.5190 H   0  0  0  0  0  0  0  0  0  0  0
    0.5670    3.1140   -0.0370 H   0  0  0  0  0  0  0  0  0  0  0
   -0.0800    2.0240    3.8370 H   0  0  0  0  0  0  0  0  0  0  0
    0.8430    2.1430    6.0550 H   0  0  0  0  0  0  0  0  0  0  0
    4.7080    1.6060    4.4790 H   0  0  0  0  0  0  0  0  0  0  0
  1  2  2  0  0  0  0
  1  6  1  0  0  0  0
  1  7  1  0  0  0  0
  2  3  1  0  0  0  0
  2 18  1  0  0  0  0
  3  4  2  0  0  0  0
  3  8  1  0  0  0  0
  4  5  1  0  0  0  0
  4 19  1  0  0  0  0
  5  6  2  0  0  0  0
  5 20  1  0  0  0  0
  6  9  1  0  0  0  0
  7 21  1  0  0  0  0
  9 10  1  0  0  0  0
 10 11  2  0  0  0  0
 10 12  1  0  0  0  0
 11 15  1  0  0  0  0
 11 16  1  0  0  0  0
 12 13  2  0  0  0  0
 12 22  1  0  0  0  0
 13 14  1  0  0  0  0
 13 23  1  0  0  0  0
 14 15  2  0  0  0  0
 14 17  1  0  0  0  0
 15 24  1  0  0  0  0
M  END
> <From>
www.bindingDB.org

> <BindingDB Reactant_set_id>
50653135

> <Ligand InChI>
InChI=1S/C12H7Cl3O2/c13-7-1-3-11(9(15)5-7)17-12-4-2-8(14)6-10(12)16/h1-6,16H

> <Ligand InChI Key>
XEFQLINVKFYRCS-UHFFFAOYSA-N

> <BindingDB MonomerID>
8726

> <BindingDB Ligand Name>
5-chloro-2-(2,4-dichlorophenoxy)phenol::CHEMBL849::TCL::Triclosan

> <Target Name>
Enoyl-ACP reductase

> <Target Source Organism According to Curator or DataSource>
Plasmodium falciparum

> <Ki (nM)>


> <IC50 (nM)>
 200

> <Kd (nM)>


> <EC50 (nM)>


> <kon (M-1-s-1)>


> <koff (s-1)>


> <pH>


> <Temp C>


> <Curation/DataSource>
ChEMBL

> <Article DOI>
10.1021/np100896w

> <BindingDB Entry DOI>
10.7270/Q2WH2QC7

> <PMID>
21619045

> <PubChem AID>


> <Patent Number>


> <Authors>
Bankeu, JJ; Khayala, R; Lenta, BN; Noungoue, DT; Ngouela, SA; Mustafa, SA; Asaad, K; Choudhary, MI; Prigge, ST; Hasanov, R; Nkengfack, AE; Tsamo, E; Ali, MS

> <Institution>
University of Yaounde

> <Link to Ligand in BindingDB>
http://www.bindingdb.org/bind/chemsearch/marvin/MolStructure.jsp?monomerid=8726

> <Link to Ligand-Target Pair in BindingDB>
http://www.bindingdb.org/jsp/dbsearch/PrimarySearch_ki.jsp?energyterm=kJ/mole&tag=pol&polymerid=2820&target=Enoyl-ACP+reductase&column=ki&startPg=0&Increment=50&submit=Search

> <Link to Ligand-Target Pair in BindingDB>
http://www.bindingdb.org/jsp/dbsearch/PrimarySearch_ki.jsp?energyterm=kJ/mole&tag=r21&monomerid=8726&enzyme=Enoyl-ACP+reductase&column=ki&startPg=0&Increment=50&submit=Search

> <Ligand HET ID in PDB>
TCL

> <PDB ID(s) for Ligand-Target Complex>
2O2S,4M89,1UH5,4NR0,3PJF,3PJE,3PJD,6AH9,2O2Y,5YCS,1P45,3OID,3OIF,1QSG,2B35,2QIO,3P9T,3NRC,3GR6,2WYW,1NHG,5IFL,3AM3,3AM5,1D8A,1QG6,1D7O,3F4B,4W9N,2PD3,1C14,7FCM,4ALL,4ALI

> <PubChem CID of Ligand>
5564

> <PubChem SID of Ligand>
11109466

> <ChEBI ID of Ligand>
164200

> <ChEMBL ID of Ligand>
CHEMBL849

> <DrugBank ID of Ligand>
DB08604

> <IUPHAR_GRAC ID of Ligand>


> <KEGG ID of Ligand>
C12059

> <ZINC ID of Ligand>
ZINC00002216

> <Number of Protein Chains in Target (bigger than 1 implies a multichain complex)>
1

> <BindingDB Target Chain Sequence>
MNKISQRLLFLFLHFYTTVCFIQNNTQKTFHNVLQNEQIRGKEKAFYRKEKRENIFIGNK
MKHVHNMNNTHNNNHYMEKEEQDASNINKIKEENKNEDICFIAGIGDTNGYGWGIAKELS
KRNVKIIFGIWPPVYNIFMKNYKNGKFDNDMIIDKDKKMNILDMLPFDASFDTANDIDEE
TKNNKRYNMLQNYTIEDVANLIHQKYGKINMLVHSLANAKEVQKDLLNTSRKGYLDALSK
SSYSLISLCKYFVNIMKPQSSIISLTYHASQKVVPGYGGGMSSAKAALESDTRVLAYHLG
RNYNIRINTISAGPLKSRAATAINKLNNTYENNTNQNKNRNRHDVHNIMNNSGEKEEKKI
SASQNYTFIDYAIEYSEKYAPLRQKLLSTDIGSVASFLLSRESRAITGQTIYVDNGLNIM
FLPDDIYRNENE

> <PDB ID(s) of Target Chain>
1NHG,1NHW,1NNU,1UH5,1V35,2FOI,2NQ8,3LSY,3LT0,3LT1,3LT2,3LT4

> <UniProt (SwissProt) Recommended Name of Target Chain>


> <UniProt (SwissProt) Entry Name of Target Chain>


> <UniProt (SwissProt) Primary ID of Target Chain>


> <UniProt (SwissProt) Secondary ID(s) of Target Chain>


> <UniProt (SwissProt) Alternative ID(s) of Target Chain>


> <UniProt (TrEMBL) Submitted Name of Target Chain>
Enoyl-ACP reductase

> <UniProt (TrEMBL) Entry Name of Target Chain>
Q9BJJ9_PLAFA

> <UniProt (TrEMBL) Primary ID of Target Chain>
Q9BJJ9

> <UniProt (TrEMBL) Secondary ID(s) of Target Chain>


> <UniProt (TrEMBL) Alternative ID(s) of Target Chain>


$$$$
BindingDB_50280906_3D

Vconf v2.1
 50 54  0  0  0  0  0  0  0  0999 V2000
    8.4840   -7.3470    1.0700 C   0  0  0  0  0  0  0  0  0  0  0
    7.8710   -6.1200    0.8080 C   0  0  0  0  0  0  0  0  0  0  0
    7.9810   -8.3090    0.2550 O   0  0  0  0  0  0  0  0  0  0  0
    7.0530   -7.7150   -0.5280 C   0  0  0  0  0  0  0  0  0  0  0
    6.9590   -6.3620   -0.2120 C   0  0  0  0  0  0  0  0  0  0  0
    6.0610   -5.5160   -0.8840 C   0  0  0  0  0  0  0  0  0  0  0
    5.2480   -6.0700   -1.8970 C   0  0  0  0  0  0  0  0  0  0  0
    5.3440   -7.4440   -2.2170 C   0  0  0  0  0  0  0  0  0  0  0
    6.2510   -8.2780   -1.5320 C   0  0  0  0  0  0  0  0  0  0  0
    8.3600  -12.8970    6.1510 C   0  0  0  0  0  0  0  0  0  0  0
    8.4880  -13.6360    7.3450 C   0  0  0  0  0  0  0  0  0  0  0
    7.8570  -14.8270    7.4910 N   0  0  0  0  0  0  0  0  0  0  0
    7.5540  -13.4550    5.1320 C   0  0  0  0  0  0  0  0  0  0  0
    6.9080  -14.6930    5.3080 C   0  0  0  0  0  0  0  0  0  0  0
    7.0800  -15.3740    6.5270 C   0  0  0  0  0  0  0  0  0  0  0
    6.4950  -16.5650    6.7690 N   0  0  0  0  0  0  0  0  0  0  0
    5.6940  -17.1920    5.8840 C   0  0  0  0  0  0  0  0  0  0  0
    5.3820  -16.6190    4.5630 C   0  0  0  0  0  0  0  0  0  0  0
    6.0770  -15.2720    4.2340 C   0  0  0  0  0  0  0  0  0  0  0
    5.1920  -18.2900    6.2060 O   0  0  0  0  0  0  0  0  0  0  0
    9.0350  -11.6550    6.0410 C   0  0  0  0  0  0  0  0  0  0  0
    8.9990  -10.8060    4.9280 C   0  0  0  0  0  0  0  0  0  0  0
    9.6920   -9.5880    4.8810 C   0  0  0  0  0  0  0  0  0  0  0
    9.6030   -8.7880    3.7410 N   0  0  0  0  0  0  0  0  0  0  0
   10.3910   -9.1820    5.8360 O   0  0  0  0  0  0  0  0  0  0  0
    9.1050   -7.4290    3.5570 C   0  0  0  0  0  0  0  0  0  0  0
    9.5220   -7.5760    2.0840 C   0  0  0  0  0  0  0  0  0  0  0
    9.9780   -9.0210    2.3490 C   0  0  0  0  0  0  0  0  0  0  0
    8.1530   -4.8480    1.4850 C   0  0  0  0  0  0  0  0  0  0  0
    4.1540   -5.0840   -2.7290 Cl  0  0  0  0  0  0  0  0  0  0  0
    6.0010   -4.5250   -0.6430 H   0  0  0  0  0  0  0  0  0  0  0
    4.7560   -7.8450   -2.9500 H   0  0  0  0  0  0  0  0  0  0  0
    6.3230   -9.2690   -1.7610 H   0  0  0  0  0  0  0  0  0  0  0
    9.0590  -13.2840    8.1160 H   0  0  0  0  0  0  0  0  0  0  0
    7.4270  -12.9660    4.2460 H   0  0  0  0  0  0  0  0  0  0  0
    6.6540  -16.9900    7.6250 H   0  0  0  0  0  0  0  0  0  0  0
    4.3030  -16.4740    4.5070 H   0  0  0  0  0  0  0  0  0  0  0
    5.6660  -17.3480    3.8030 H   0  0  0  0  0  0  0  0  0  0  0
    5.3030  -14.5490    3.9700 H   0  0  0  0  0  0  0  0  0  0  0
    6.7100  -15.4220    3.3580 H   0  0  0  0  0  0  0  0  0  0  0
    9.5950  -11.3500    6.8410 H   0  0  0  0  0  0  0  0  0  0  0
    8.4510  -11.0670    4.1090 H   0  0  0  0  0  0  0  0  0  0  0
    9.6420   -6.6630    4.1180 H   0  0  0  0  0  0  0  0  0  0  0
    8.0390   -7.3130    3.7580 H   0  0  0  0  0  0  0  0  0  0  0
   10.3570   -6.9280    1.8160 H   0  0  0  0  0  0  0  0  0  0  0
   11.0390   -9.2100    2.1860 H   0  0  0  0  0  0  0  0  0  0  0
    9.4130   -9.8170    1.8610 H   0  0  0  0  0  0  0  0  0  0  0
    7.5380   -4.0460    1.0760 H   0  0  0  0  0  0  0  0  0  0  0
    7.9420   -4.9480    2.5500 H   0  0  0  0  0  0  0  0  0  0  0
    9.2040   -4.5900    1.3510 H   0  0  0  0  0  0  0  0  0  0  0
  1  2  2  0  0  0  0
  1  3  1  0  0  0  0
  1 27  1  0  0  0  0
  2  5  1  0  0  0  0
  2 29  1  0  0  0  0
  3  4  1  0  0  0  0
  4  5  2  0  0  0  0
  4  9  1  0  0  0  0
  5  6  1  0  0  0  0
  6  7  2  0  0  0  0
  6 31  1  0  0  0  0
  7  8  1  0  0  0  0
  7 30  1  0  0  0  0
  8  9  2  0  0  0  0
  8 32  1  0  0  0  0
  9 33  1  0  0  0  0
 10 11  2  0  0  0  0
 10 13  1  0  0  0  0
 10 21  1  0  0  0  0
 11 12  1  0  0  0  0
 11 34  1  0  0  0  0
 12 15  2  0  0  0  0
 13 14  2  0  0  0  0
 13 35  1  0  0  0  0
 14 15  1  0  0  0  0
 14 19  1  0  0  0  0
 15 16  1  0  0  0  0
 16 17  1  0  0  0  0
 16 36  1  0  0  0  0
 17 18  1  0  0  0  0
 17 20  2  0  0  0  0
 18 19  1  0  0  0  0
 18 37  1  0  0  0  0
 18 38  1  0  0  0  0
 19 39  1  0  0  0  0
 19 40  1  0  0  0  0
 21 22  2  0  0  0  0
 21 41  1  0  0  0  0
 22 23  1  0  0  0  0
 22 42  1  0  0  0  0
 23 24  1  0  0  0  0
 23 25  2  0  0  0  0
 24 26  1  0  0  0  0
 24 28  1  0  0  0  0
 26 27  1  0  0  0  0
 26 43  1  0  0  0  0
 26 44  1  0  0  0  0
 27 28  1  0  0  0  0
 27 45  1  0  0  0  0
 28 46  1  0  0  0  0
 28 47  1  0  0  0  0
 29 48  1  0  0  0  0
 29 49  1  0  0  0  0
 29 50  1  0  0  0  0
M  END
> <From>
www.bindingDB.org

> <BindingDB Reactant_set_id>
50280906

> <Ligand InChI>
InChI=1S/C23H20ClN3O3/c1-13-18-9-17(24)4-5-19(18)30-22(13)16-11-27(12-16)21(29)7-2-14-8-15-3-6-20(28)26-23(15)25-10-14/h2,4-5,7-10,16H,3,6,11-12H2,1H3,(H,25,26,28)/b7-2+

> <Ligand InChI Key>
XBFZWNNKAQIXBO-FARCUNLSSA-N

> <BindingDB MonomerID>
50052233

> <BindingDB Ligand Name>
CHEMBL3322720

> <Target Name>
Enoyl-[acyl-carrier-protein] reductase [NADPH] FabI [9-251]

> <Target Source Organism According to Curator or DataSource>
Staphylococcus aureus

> <Ki (nM)>


> <IC50 (nM)>
 204

> <Kd (nM)>


> <EC50 (nM)>


> <kon (M-1-s-1)>


> <koff (s-1)>


> <pH>


> <Temp C>


> <Curation/DataSource>
ChEMBL

> <Article DOI>
10.1016/j.ejmech.2014.07.036

> <BindingDB Entry DOI>
10.7270/Q2CJ8G45

> <PMID>
25036796

> <PubChem AID>


> <Patent Number>


> <Authors>
Takhi, M; Sreenivas, K; Reddy, CK; Munikumar, M; Praveena, K; Sudheer, P; Rao, BN; Ramakanth, G; Sivaranjani, J; Mulik, S; Reddy, YR; Narasimha Rao, K; Pallavi, R; Lakshminarasimhan, A; Panigrahi, SK; Antony, T; Abdullah, I; Lee, YK; Ramachandra, M; Yusof, R; Rahman, NA; Subramanya, H

> <Institution>
Aurigene Discovery Technologies Ltd

> <Link to Ligand in BindingDB>
http://www.bindingdb.org/bind/chemsearch/marvin/MolStructure.jsp?monomerid=50052233

> <Link to Ligand-Target Pair in BindingDB>
http://www.bindingdb.org/jsp/dbsearch/PrimarySearch_ki.jsp?energyterm=kJ/mole&tag=pol&polymerid=50004708&target=Enoyl-%5Bacyl-carrier-protein%5D+reductase+%5BNADPH%5D+FabI+%5B9-251%5D&column=ki&startPg=0&Increment=50&submit=Search

> <Link to Ligand-Target Pair in BindingDB>
http://www.bindingdb.org/jsp/dbsearch/PrimarySearch_ki.jsp?energyterm=kJ/mole&tag=r21&monomerid=50052233&enzyme=Enoyl-%5Bacyl-carrier-protein%5D+reductase+%5BNADPH%5D+FabI+%5B9-251%5D&column=ki&startPg=0&Increment=50&submit=Search

> <Ligand HET ID in PDB>


> <PDB ID(s) for Ligand-Target Complex>


> <PubChem CID of Ligand>
118710285

> <PubChem SID of Ligand>
103949129

> <ChEBI ID of Ligand>


> <ChEMBL ID of Ligand>
CHEMBL3322720

> <DrugBank ID of Ligand>


> <IUPHAR_GRAC ID of Ligand>


> <KEGG ID of Ligand>


> <ZINC ID of Ligand>
ZINC13757007

> <Number of Protein Chains in Target (bigger than 1 implies a multichain complex)>
1

> <BindingDB Target Chain Sequence>
YVIMGIANKRSIAFGVAKVLDQLGAKLVFTYRKERSRKELEKLLEQLNQPEAHLYQIDVQSDEEVINGFEQIGKDVGNIDGVYHSIAFANMEDLRGRFSETSREGFLLAQDISSYSLTIVAHEAKKLMPEGGSIVATTYLGGEFAVQNYNVMGVAKASLEANVKYLALDLGPDNIRVNAISAGPIRTLSAKGVGGFNTILKEIEERAPLKRNVDQVEVGKTAAYLLSDLSSGVTGENIHVDSG

> <PDB ID(s) of Target Chain>
3GNS,3GNT,3GR6,4ALI,4ALJ,4ALK,4ALL,4ALM,4ALN,4BNF,4BNG,4BNH,4BNI,4BNJ,4BNK,4BNL,4BNM,4BNN,4CUZ,4CV0,4CV1,4D41,4D42,4D43,4D44,4D45,4FS3,4NZ9,6TBB,6TBC,6YUR

> <UniProt (SwissProt) Recommended Name of Target Chain>
Enoyl-[acyl-carrier-protein] reductase [NADPH] FabI

> <UniProt (SwissProt) Entry Name of Target Chain>
FABI_STAAR

> <UniProt (SwissProt) Primary ID of Target Chain>
Q6GI75

> <UniProt (SwissProt) Secondary ID(s) of Target Chain>


> <UniProt (SwissProt) Alternative ID(s) of Target Chain>


> <UniProt (TrEMBL) Submitted Name of Target Chain>


> <UniProt (TrEMBL) Entry Name of Target Chain>


> <UniProt (TrEMBL) Primary ID of Target Chain>


> <UniProt (TrEMBL) Secondary ID(s) of Target Chain>


> <UniProt (TrEMBL) Alternative ID(s) of Target Chain>


$$$$
9

Vconf v2.0 Academic SN VC001-00000579
 33 34  0  0  0  0  0  0  0  0999 V2000
   -2.8660    3.1700    0.2940 C   0  0  0  0  0  0  0  0  0  0  0
   -4.0540    2.5140   -0.0720 C   0  0  0  0  0  0  0  0  0  0  0
   -4.4500    1.3320    0.5850 C   0  0  0  0  0  0  0  0  0  0  0
   -3.6380    0.8180    1.6160 C   0  0  0  0  0  0  0  0  0  0  0
   -2.4510    1.4740    1.9820 C   0  0  0  0  0  0  0  0  0  0  0
   -2.0610    2.6640    1.3310 C   0  0  0  0  0  0  0  0  0  0  0
   -2.5030    4.2980   -0.3560 O   0  0  0  0  0  0  0  0  0  0  0
   -0.9070    3.3410    1.6280 O   0  0  0  0  0  0  0  0  0  0  0
   -0.3320    3.3970    2.8710 C   0  0  0  0  0  0  0  0  0  0  0
    1.0620    3.2120    3.0070 C   0  0  0  0  0  0  0  0  0  0  0
   -1.1030    3.6830    4.0180 C   0  0  0  0  0  0  0  0  0  0  0
   -0.5020    3.7610    5.2850 C   0  0  0  0  0  0  0  0  0  0  0
    0.8840    3.5620    5.4190 C   0  0  0  0  0  0  0  0  0  0  0
    1.6630    3.2910    4.2790 C   0  0  0  0  0  0  0  0  0  0  0
    2.0350    2.8870    1.6600 Cl  0  0  0  0  0  0  0  0  0  0  0
    1.6110    3.6550    6.9430 Cl  0  0  0  0  0  0  0  0  0  0  0
   -5.7000    0.6480    0.1970 C   0  0  0  0  0  0  0  0  0  0  0
   -5.6260    0.0830   -1.2340 C   0  0  0  0  0  0  0  0  0  0  0
   -6.9250   -0.6550   -1.5840 C   0  0  0  0  0  0  0  0  0  0  0
   -4.6310    2.8980   -0.8210 H   0  0  0  0  0  0  0  0  0  0  0
   -3.9070   -0.0400    2.0990 H   0  0  0  0  0  0  0  0  0  0  0
   -1.8690    1.0810    2.7220 H   0  0  0  0  0  0  0  0  0  0  0
   -1.6560    4.6820   -0.0420 H   0  0  0  0  0  0  0  0  0  0  0
   -2.1080    3.8390    3.9300 H   0  0  0  0  0  0  0  0  0  0  0
   -1.0790    3.9650    6.1020 H   0  0  0  0  0  0  0  0  0  0  0
    2.6710    3.1510    4.3750 H   0  0  0  0  0  0  0  0  0  0  0
   -5.9060   -0.1780    0.8800 H   0  0  0  0  0  0  0  0  0  0  0
   -6.5280    1.3560    0.2610 H   0  0  0  0  0  0  0  0  0  0  0
   -5.4800    0.8930   -1.9500 H   0  0  0  0  0  0  0  0  0  0  0
   -4.7920   -0.6170   -1.3110 H   0  0  0  0  0  0  0  0  0  0  0
   -6.8530   -1.0560   -2.5950 H   0  0  0  0  0  0  0  0  0  0  0
   -7.0840   -1.4750   -0.8830 H   0  0  0  0  0  0  0  0  0  0  0
   -7.7670    0.0360   -1.5300 H   0  0  0  0  0  0  0  0  0  0  0
  1  2  2  0  0  0  0
  1  6  1  0  0  0  0
  1  7  1  0  0  0  0
  2  3  1  0  0  0  0
  2 20  1  0  0  0  0
  3  4  2  0  0  0  0
  3 17  1  0  0  0  0
  4  5  1  0  0  0  0
  4 21  1  0  0  0  0
  5  6  2  0  0  0  0
  5 22  1  0  0  0  0
  6  8  1  0  0  0  0
  7 23  1  0  0  0  0
  8  9  1  0  0  0  0
  9 10  2  0  0  0  0
  9 11  1  0  0  0  0
 10 14  1  0  0  0  0
 10 15  1  0  0  0  0
 11 12  2  0  0  0  0
 11 24  1  0  0  0  0
 12 13  1  0  0  0  0
 12 25  1  0  0  0  0
 13 14  2  0  0  0  0
 13 16  1  0  0  0  0
 14 26  1  0  0  0  0
 17 18  1  0  0  0  0
 17 27  1  0  0  0  0
 17 28  1  0  0  0  0
 18 19  1  0  0  0  0
 18 29  1  0  0  0  0
 18 30  1  0  0  0  0
 19 31  1  0  0  0  0
 19 32  1  0  0  0  0
 19 33  1  0  0  0  0
M  END
> <From>
www.bindingDB.org

> <BindingDB Reactant_set_id>
46061

> <Ligand InChI>
InChI=1S/C15H14Cl2O2/c1-2-3-10-4-6-15(13(18)8-10)19-14-7-5-11(16)9-12(14)17/h4-9,18H,2-3H2,1H3

> <Ligand InChI Key>
ILBQDZVPNAVUMD-UHFFFAOYSA-N

> <BindingDB MonomerID>
25408

> <BindingDB Ligand Name>
2-(2,4-dichlorophenoxy)-5-propylphenol::Triclosan derivative, 9

> <Target Name>
Enoyl-ACP reductase

> <Target Source Organism According to Curator or DataSource>
Plasmodium falciparum

> <Ki (nM)>


> <IC50 (nM)>
 210

> <Kd (nM)>


> <EC50 (nM)>


> <kon (M-1-s-1)>


> <koff (s-1)>


> <pH>
7.9

> <Temp C>
25.00

> <Curation/DataSource>
Curated from the literature by BindingDB

> <Article DOI>
10.1074/jbc.M701813200

> <BindingDB Entry DOI>
10.7270/Q22V2DFD

> <PMID>
17567585

> <PubChem AID>
aid1798551

> <Patent Number>


> <Authors>
Freundlich, JS; Wang, F; Tsai, HC; Kuo, M; Shieh, HM; Anderson, JW; Nkrumah, LJ; Valderramos, JC; Yu, M; Kumar, TR; Valderramos, SG; Jacobs, WR; Schiehser, GA; Jacobus, DP; Fidock, DA; Sacchettini, JC

> <Institution>
Jacobus Pharmaceutical Company

> <Link to Ligand in BindingDB>
http://www.bindingdb.org/bind/chemsearch/marvin/MolStructure.jsp?monomerid=25408

> <Link to Ligand-Target Pair in BindingDB>
http://www.bindingdb.org/jsp/dbsearch/PrimarySearch_ki.jsp?energyterm=kJ/mole&tag=pol&polymerid=2820&target=Enoyl-ACP+reductase&column=ki&startPg=0&Increment=50&submit=Search

> <Link to Ligand-Target Pair in BindingDB>
http://www.bindingdb.org/jsp/dbsearch/PrimarySearch_ki.jsp?energyterm=kJ/mole&tag=r21&monomerid=25408&enzyme=Enoyl-ACP+reductase&column=ki&startPg=0&Increment=50&submit=Search

> <Ligand HET ID in PDB>


> <PDB ID(s) for Ligand-Target Complex>


> <PubChem CID of Ligand>
25023959

> <PubChem SID of Ligand>
56374547

> <ChEBI ID of Ligand>


> <ChEMBL ID of Ligand>


> <DrugBank ID of Ligand>


> <IUPHAR_GRAC ID of Ligand>


> <KEGG ID of Ligand>


> <ZINC ID of Ligand>
ZINC29061529

> <Number of Protein Chains in Target (bigger than 1 implies a multichain complex)>
1

> <BindingDB Target Chain Sequence>
MNKISQRLLFLFLHFYTTVCFIQNNTQKTFHNVLQNEQIRGKEKAFYRKEKRENIFIGNK
MKHVHNMNNTHNNNHYMEKEEQDASNINKIKEENKNEDICFIAGIGDTNGYGWGIAKELS
KRNVKIIFGIWPPVYNIFMKNYKNGKFDNDMIIDKDKKMNILDMLPFDASFDTANDIDEE
TKNNKRYNMLQNYTIEDVANLIHQKYGKINMLVHSLANAKEVQKDLLNTSRKGYLDALSK
SSYSLISLCKYFVNIMKPQSSIISLTYHASQKVVPGYGGGMSSAKAALESDTRVLAYHLG
RNYNIRINTISAGPLKSRAATAINKLNNTYENNTNQNKNRNRHDVHNIMNNSGEKEEKKI
SASQNYTFIDYAIEYSEKYAPLRQKLLSTDIGSVASFLLSRESRAITGQTIYVDNGLNIM
FLPDDIYRNENE

> <PDB ID(s) of Target Chain>
1NHG,1NHW,1NNU,1UH5,1V35,2FOI,2NQ8,3LSY,3LT0,3LT1,3LT2,3LT4

> <UniProt (SwissProt) Recommended Name of Target Chain>


> <UniProt (SwissProt) Entry Name of Target Chain>


> <UniProt (SwissProt) Primary ID of Target Chain>


> <UniProt (SwissProt) Secondary ID(s) of Target Chain>


> <UniProt (SwissProt) Alternative ID(s) of Target Chain>


> <UniProt (TrEMBL) Submitted Name of Target Chain>
Enoyl-ACP reductase

> <UniProt (TrEMBL) Entry Name of Target Chain>
Q9BJJ9_PLAFA

> <UniProt (TrEMBL) Primary ID of Target Chain>
Q9BJJ9

> <UniProt (TrEMBL) Secondary ID(s) of Target Chain>


> <UniProt (TrEMBL) Alternative ID(s) of Target Chain>


$$$$
17

Vconf v2.0 Academic SN VC001-00000579
 37 39  0  0  0  0  0  0  0  0999 V2000
   -2.9530    3.1580    0.6880 C   0  0  0  0  0  0  0  0  0  0  0
   -4.2060    2.5240    0.6230 C   0  0  0  0  0  0  0  0  0  0  0
   -4.3120    1.1140    0.5610 C   0  0  0  0  0  0  0  0  0  0  0
   -3.1120    0.3640    0.5720 C   0  0  0  0  0  0  0  0  0  0  0
   -1.8590    0.9960    0.6370 C   0  0  0  0  0  0  0  0  0  0  0
   -1.7690    2.4020    0.6830 C   0  0  0  0  0  0  0  0  0  0  0
   -2.8930    4.5060    0.7540 O   0  0  0  0  0  0  0  0  0  0  0
   -0.5810    3.0800    0.7660 O   0  0  0  0  0  0  0  0  0  0  0
    0.5980    2.6730    0.1950 C   0  0  0  0  0  0  0  0  0  0  0
    1.8020    2.7950    0.9230 C   0  0  0  0  0  0  0  0  0  0  0
    0.6400    2.1800   -1.1260 C   0  0  0  0  0  0  0  0  0  0  0
    1.8580    1.7890   -1.7060 C   0  0  0  0  0  0  0  0  0  0  0
    3.0530    1.8960   -0.9730 C   0  0  0  0  0  0  0  0  0  0  0
    3.0230    2.4020    0.3400 C   0  0  0  0  0  0  0  0  0  0  0
    1.8100    3.4040    2.5040 Cl  0  0  0  0  0  0  0  0  0  0  0
   -5.5860    0.4710    0.4930 C   0  0  0  0  0  0  0  0  0  0  0
   -5.8120   -0.7770    1.1240 C   0  0  0  0  0  0  0  0  0  0  0
   -7.0650   -1.4190    1.0650 C   0  0  0  0  0  0  0  0  0  0  0
   -8.1190   -0.8070    0.3630 C   0  0  0  0  0  0  0  0  0  0  0
   -7.9210    0.4290   -0.2700 C   0  0  0  0  0  0  0  0  0  0  0
   -6.6680    1.0590   -0.2050 C   0  0  0  0  0  0  0  0  0  0  0
   -7.2510   -2.7140    1.7380 C   0  0  0  0  0  0  0  0  0  0  0
    4.5200    1.4230   -1.6690 Cl  0  0  0  0  0  0  0  0  0  0  0
   -5.0440    3.1060    0.6350 H   0  0  0  0  0  0  0  0  0  0  0
   -3.1370   -0.6560    0.5220 H   0  0  0  0  0  0  0  0  0  0  0
   -1.0110    0.4280    0.6520 H   0  0  0  0  0  0  0  0  0  0  0
   -1.9790    4.8600    0.8020 H   0  0  0  0  0  0  0  0  0  0  0
   -0.2200    2.1080   -1.6710 H   0  0  0  0  0  0  0  0  0  0  0
    1.8650    1.4300   -2.6620 H   0  0  0  0  0  0  0  0  0  0  0
    3.8920    2.4850    0.8710 H   0  0  0  0  0  0  0  0  0  0  0
   -5.0610   -1.2290    1.6480 H   0  0  0  0  0  0  0  0  0  0  0
   -9.0330   -1.2590    0.3110 H   0  0  0  0  0  0  0  0  0  0  0
   -8.6870    0.8690   -0.7810 H   0  0  0  0  0  0  0  0  0  0  0
   -6.5500    1.9520   -0.6860 H   0  0  0  0  0  0  0  0  0  0  0
   -8.2710   -3.0820    1.6110 H   0  0  0  0  0  0  0  0  0  0  0
   -6.5600   -3.4460    1.3180 H   0  0  0  0  0  0  0  0  0  0  0
   -7.0500   -2.6030    2.8040 H   0  0  0  0  0  0  0  0  0  0  0
  1  2  2  0  0  0  0
  1  6  1  0  0  0  0
  1  7  1  0  0  0  0
  2  3  1  0  0  0  0
  2 24  1  0  0  0  0
  3  4  2  0  0  0  0
  3 16  1  0  0  0  0
  4  5  1  0  0  0  0
  4 25  1  0  0  0  0
  5  6  2  0  0  0  0
  5 26  1  0  0  0  0
  6  8  1  0  0  0  0
  7 27  1  0  0  0  0
  8  9  1  0  0  0  0
  9 10  2  0  0  0  0
  9 11  1  0  0  0  0
 10 14  1  0  0  0  0
 10 15  1  0  0  0  0
 11 12  2  0  0  0  0
 11 28  1  0  0  0  0
 12 13  1  0  0  0  0
 12 29  1  0  0  0  0
 13 14  2  0  0  0  0
 13 23  1  0  0  0  0
 14 30  1  0  0  0  0
 16 17  1  0  0  0  0
 16 21  2  0  0  0  0
 17 18  2  0  0  0  0
 17 31  1  0  0  0  0
 18 19  1  0  0  0  0
 18 22  1  0  0  0  0
 19 20  2  0  0  0  0
 19 32  1  0  0  0  0
 20 21  1  0  0  0  0
 20 33  1  0  0  0  0
 21 34  1  0  0  0  0
 22 35  1  0  0  0  0
 22 36  1  0  0  0  0
 22 37  1  0  0  0  0
M  END
> <From>
www.bindingDB.org

> <BindingDB Reactant_set_id>
46069

> <Ligand InChI>
InChI=1S/C19H14Cl2O2/c1-12-3-2-4-13(9-12)14-5-7-19(17(22)10-14)23-18-8-6-15(20)11-16(18)21/h2-11,22H,1H3

> <Ligand InChI Key>
GFJKNHKOZLFIJW-UHFFFAOYSA-N

> <BindingDB MonomerID>
25416

> <BindingDB Ligand Name>
2-(2,4-dichlorophenoxy)-5-(3-methylphenyl)phenol::Triclosan derivative, 17

> <Target Name>
Enoyl-ACP reductase

> <Target Source Organism According to Curator or DataSource>
Plasmodium falciparum

> <Ki (nM)>


> <IC50 (nM)>
 230

> <Kd (nM)>


> <EC50 (nM)>


> <kon (M-1-s-1)>


> <koff (s-1)>


> <pH>
7.9

> <Temp C>
25.00

> <Curation/DataSource>
Curated from the literature by BindingDB

> <Article DOI>
10.1074/jbc.M701813200

> <BindingDB Entry DOI>
10.7270/Q22V2DFD

> <PMID>
17567585

> <PubChem AID>
aid1798551

> <Patent Number>


> <Authors>
Freundlich, JS; Wang, F; Tsai, HC; Kuo, M; Shieh, HM; Anderson, JW; Nkrumah, LJ; Valderramos, JC; Yu, M; Kumar, TR; Valderramos, SG; Jacobs, WR; Schiehser, GA; Jacobus, DP; Fidock, DA; Sacchettini, JC

> <Institution>
Jacobus Pharmaceutical Company

> <Link to Ligand in BindingDB>
http://www.bindingdb.org/bind/chemsearch/marvin/MolStructure.jsp?monomerid=25416

> <Link to Ligand-Target Pair in BindingDB>
http://www.bindingdb.org/jsp/dbsearch/PrimarySearch_ki.jsp?energyterm=kJ/mole&tag=pol&polymerid=2820&target=Enoyl-ACP+reductase&column=ki&startPg=0&Increment=50&submit=Search

> <Link to Ligand-Target Pair in BindingDB>
http://www.bindingdb.org/jsp/dbsearch/PrimarySearch_ki.jsp?energyterm=kJ/mole&tag=r21&monomerid=25416&enzyme=Enoyl-ACP+reductase&column=ki&startPg=0&Increment=50&submit=Search

> <Ligand HET ID in PDB>


> <PDB ID(s) for Ligand-Target Complex>


> <PubChem CID of Ligand>
25023966

> <PubChem SID of Ligand>
56374555

> <ChEBI ID of Ligand>


> <ChEMBL ID of Ligand>


> <DrugBank ID of Ligand>


> <IUPHAR_GRAC ID of Ligand>


> <KEGG ID of Ligand>


> <ZINC ID of Ligand>
ZINC29061110

> <Number of Protein Chains in Target (bigger than 1 implies a multichain complex)>
1

> <BindingDB Target Chain Sequence>
MNKISQRLLFLFLHFYTTVCFIQNNTQKTFHNVLQNEQIRGKEKAFYRKEKRENIFIGNK
MKHVHNMNNTHNNNHYMEKEEQDASNINKIKEENKNEDICFIAGIGDTNGYGWGIAKELS
KRNVKIIFGIWPPVYNIFMKNYKNGKFDNDMIIDKDKKMNILDMLPFDASFDTANDIDEE
TKNNKRYNMLQNYTIEDVANLIHQKYGKINMLVHSLANAKEVQKDLLNTSRKGYLDALSK
SSYSLISLCKYFVNIMKPQSSIISLTYHASQKVVPGYGGGMSSAKAALESDTRVLAYHLG
RNYNIRINTISAGPLKSRAATAINKLNNTYENNTNQNKNRNRHDVHNIMNNSGEKEEKKI
SASQNYTFIDYAIEYSEKYAPLRQKLLSTDIGSVASFLLSRESRAITGQTIYVDNGLNIM
FLPDDIYRNENE

> <PDB ID(s) of Target Chain>
1NHG,1NHW,1NNU,1UH5,1V35,2FOI,2NQ8,3LSY,3LT0,3LT1,3LT2,3LT4

> <UniProt (SwissProt) Recommended Name of Target Chain>


> <UniProt (SwissProt) Entry Name of Target Chain>


> <UniProt (SwissProt) Primary ID of Target Chain>


> <UniProt (SwissProt) Secondary ID(s) of Target Chain>


> <UniProt (SwissProt) Alternative ID(s) of Target Chain>


> <UniProt (TrEMBL) Submitted Name of Target Chain>
Enoyl-ACP reductase

> <UniProt (TrEMBL) Entry Name of Target Chain>
Q9BJJ9_PLAFA

> <UniProt (TrEMBL) Primary ID of Target Chain>
Q9BJJ9

> <UniProt (TrEMBL) Secondary ID(s) of Target Chain>


> <UniProt (TrEMBL) Alternative ID(s) of Target Chain>


$$$$
BindingDB_50280907_3D

Vconf v2.1
 52 56  0  0  0  0  0  0  0  0999 V2000
    7.5820  -14.3040   -0.2760 C   0  0  0  0  0  0  0  0  0  0  0
    1.8810  -15.6800   -1.7980 C   0  0  0  0  0  0  0  0  0  0  0
    0.8010  -15.9470   -2.6690 C   0  0  0  0  0  0  0  0  0  0  0
   -0.4430  -16.1660   -2.1760 N   0  0  0  0  0  0  0  0  0  0  0
    1.5980  -15.6530   -0.4150 C   0  0  0  0  0  0  0  0  0  0  0
    0.2990  -15.8830    0.0720 C   0  0  0  0  0  0  0  0  0  0  0
   -0.7280  -16.1440   -0.8530 C   0  0  0  0  0  0  0  0  0  0  0
   -1.9990  -16.3740   -0.4640 N   0  0  0  0  0  0  0  0  0  0  0
   -2.3910  -16.3800    0.8270 C   0  0  0  0  0  0  0  0  0  0  0
   -1.4510  -16.1350    1.9340 C   0  0  0  0  0  0  0  0  0  0  0
    0.0170  -15.8480    1.5210 C   0  0  0  0  0  0  0  0  0  0  0
   -3.5920  -16.6060    1.0850 O   0  0  0  0  0  0  0  0  0  0  0
    3.2090  -15.4420   -2.2290 C   0  0  0  0  0  0  0  0  0  0  0
    3.6370  -15.4240   -3.5630 C   0  0  0  0  0  0  0  0  0  0  0
    4.9680  -15.1870   -3.9370 C   0  0  0  0  0  0  0  0  0  0  0
    5.9930  -14.9890   -3.0070 N   0  0  0  0  0  0  0  0  0  0  0
    5.2580  -15.1400   -5.1520 O   0  0  0  0  0  0  0  0  0  0  0
    6.8020  -13.8120   -2.7080 C   0  0  0  0  0  0  0  0  0  0  0
    7.5510  -14.6960   -1.6940 C   0  0  0  0  0  0  0  0  0  0  0
    6.6520  -15.8890   -2.0640 C   0  0  0  0  0  0  0  0  0  0  0
    7.0840  -13.1070    0.1140 N   0  0  0  0  0  0  0  0  0  0  0
    8.1500  -14.7810    2.0470 C   0  0  0  0  0  0  0  0  0  0  0
    8.1250  -15.1630    0.6920 C   0  0  0  0  0  0  0  0  0  0  0
    7.6210  -13.5180    2.4260 C   0  0  0  0  0  0  0  0  0  0  0
    7.0820  -12.6890    1.4030 C   0  0  0  0  0  0  0  0  0  0  0
    6.5410  -11.4280    1.7060 C   0  0  0  0  0  0  0  0  0  0  0
    6.5280  -10.9700    3.0330 C   0  0  0  0  0  0  0  0  0  0  0
    7.0540  -11.7750    4.0550 C   0  0  0  0  0  0  0  0  0  0  0
    7.5960  -13.0370    3.7550 C   0  0  0  0  0  0  0  0  0  0  0
    8.7440  -15.7580    2.9840 C   0  0  0  0  0  0  0  0  0  0  0
    0.9350  -15.9810   -3.6790 H   0  0  0  0  0  0  0  0  0  0  0
    2.3450  -15.4620    0.2550 H   0  0  0  0  0  0  0  0  0  0  0
   -2.6650  -16.5460   -1.1460 H   0  0  0  0  0  0  0  0  0  0  0
   -1.8200  -15.2850    2.5080 H   0  0  0  0  0  0  0  0  0  0  0
   -1.4620  -17.0120    2.5830 H   0  0  0  0  0  0  0  0  0  0  0
    0.6560  -16.5830    2.0130 H   0  0  0  0  0  0  0  0  0  0  0
    0.2870  -14.8600    1.8970 H   0  0  0  0  0  0  0  0  0  0  0
    3.9130  -15.2630   -1.5090 H   0  0  0  0  0  0  0  0  0  0  0
    2.9620  -15.5760   -4.3120 H   0  0  0  0  0  0  0  0  0  0  0
    6.2310  -12.9690   -2.3160 H   0  0  0  0  0  0  0  0  0  0  0
    7.4050  -13.4520   -3.5430 H   0  0  0  0  0  0  0  0  0  0  0
    8.5900  -14.8480   -1.9890 H   0  0  0  0  0  0  0  0  0  0  0
    6.0080  -16.2840   -1.2770 H   0  0  0  0  0  0  0  0  0  0  0
    7.1710  -16.7300   -2.5260 H   0  0  0  0  0  0  0  0  0  0  0
    8.5030  -16.0690    0.4080 H   0  0  0  0  0  0  0  0  0  0  0
    6.1570  -10.8420    0.9640 H   0  0  0  0  0  0  0  0  0  0  0
    6.1350  -10.0550    3.2540 H   0  0  0  0  0  0  0  0  0  0  0
    7.0440  -11.4420    5.0200 H   0  0  0  0  0  0  0  0  0  0  0
    7.9680  -13.5900    4.5240 H   0  0  0  0  0  0  0  0  0  0  0
    8.7420  -15.4180    4.0160 H   0  0  0  0  0  0  0  0  0  0  0
    8.1830  -16.6930    2.9340 H   0  0  0  0  0  0  0  0  0  0  0
    9.7780  -15.9540    2.6940 H   0  0  0  0  0  0  0  0  0  0  0
  1 19  1  0  0  0  0
  1 21  2  0  0  0  0
  1 23  1  0  0  0  0
  2  3  2  0  0  0  0
  2  5  1  0  0  0  0
  2 13  1  0  0  0  0
  3  4  1  0  0  0  0
  3 31  1  0  0  0  0
  4  7  2  0  0  0  0
  5  6  2  0  0  0  0
  5 32  1  0  0  0  0
  6  7  1  0  0  0  0
  6 11  1  0  0  0  0
  7  8  1  0  0  0  0
  8  9  1  0  0  0  0
  8 33  1  0  0  0  0
  9 10  1  0  0  0  0
  9 12  2  0  0  0  0
 10 11  1  0  0  0  0
 10 34  1  0  0  0  0
 10 35  1  0  0  0  0
 11 36  1  0  0  0  0
 11 37  1  0  0  0  0
 13 14  2  0  0  0  0
 13 38  1  0  0  0  0
 14 15  1  0  0  0  0
 14 39  1  0  0  0  0
 15 16  1  0  0  0  0
 15 17  2  0  0  0  0
 16 18  1  0  0  0  0
 16 20  1  0  0  0  0
 18 19  1  0  0  0  0
 18 40  1  0  0  0  0
 18 41  1  0  0  0  0
 19 20  1  0  0  0  0
 19 42  1  0  0  0  0
 20 43  1  0  0  0  0
 20 44  1  0  0  0  0
 21 25  1  0  0  0  0
 22 23  2  0  0  0  0
 22 24  1  0  0  0  0
 22 30  1  0  0  0  0
 23 45  1  0  0  0  0
 24 25  1  0  0  0  0
 24 29  2  0  0  0  0
 25 26  2  0  0  0  0
 26 27  1  0  0  0  0
 26 46  1  0  0  0  0
 27 28  2  0  0  0  0
 27 47  1  0  0  0  0
 28 29  1  0  0  0  0
 28 48  1  0  0  0  0
 29 49  1  0  0  0  0
 30 50  1  0  0  0  0
 30 51  1  0  0  0  0
 30 52  1  0  0  0  0
M  END
> <From>
www.bindingDB.org

> <BindingDB Reactant_set_id>
50280907

> <Ligand InChI>
InChI=1S/C24H22N4O2/c1-15-10-21(26-20-5-3-2-4-19(15)20)18-13-28(14-18)23(30)9-6-16-11-17-7-8-22(29)27-24(17)25-12-16/h2-6,9-12,18H,7-8,13-14H2,1H3,(H,25,27,29)/b9-6+

> <Ligand InChI Key>
WOJRDDBAKIYLRJ-RMKNXTFCSA-N

> <BindingDB MonomerID>
50052234

> <BindingDB Ligand Name>
CHEMBL3322721

> <Target Name>
Enoyl-[acyl-carrier-protein] reductase [NADPH] FabI [9-251]

> <Target Source Organism According to Curator or DataSource>
Staphylococcus aureus

> <Ki (nM)>


> <IC50 (nM)>
 242

> <Kd (nM)>


> <EC50 (nM)>


> <kon (M-1-s-1)>


> <koff (s-1)>


> <pH>


> <Temp C>


> <Curation/DataSource>
ChEMBL

> <Article DOI>
10.1016/j.ejmech.2014.07.036

> <BindingDB Entry DOI>
10.7270/Q2CJ8G45

> <PMID>
25036796

> <PubChem AID>


> <Patent Number>


> <Authors>
Takhi, M; Sreenivas, K; Reddy, CK; Munikumar, M; Praveena, K; Sudheer, P; Rao, BN; Ramakanth, G; Sivaranjani, J; Mulik, S; Reddy, YR; Narasimha Rao, K; Pallavi, R; Lakshminarasimhan, A; Panigrahi, SK; Antony, T; Abdullah, I; Lee, YK; Ramachandra, M; Yusof, R; Rahman, NA; Subramanya, H

> <Institution>
Aurigene Discovery Technologies Ltd

> <Link to Ligand in BindingDB>
http://www.bindingdb.org/bind/chemsearch/marvin/MolStructure.jsp?monomerid=50052234

> <Link to Ligand-Target Pair in BindingDB>
http://www.bindingdb.org/jsp/dbsearch/PrimarySearch_ki.jsp?energyterm=kJ/mole&tag=pol&polymerid=50004708&target=Enoyl-%5Bacyl-carrier-protein%5D+reductase+%5BNADPH%5D+FabI+%5B9-251%5D&column=ki&startPg=0&Increment=50&submit=Search

> <Link to Ligand-Target Pair in BindingDB>
http://www.bindingdb.org/jsp/dbsearch/PrimarySearch_ki.jsp?energyterm=kJ/mole&tag=r21&monomerid=50052234&enzyme=Enoyl-%5Bacyl-carrier-protein%5D+reductase+%5BNADPH%5D+FabI+%5B9-251%5D&column=ki&startPg=0&Increment=50&submit=Search

> <Ligand HET ID in PDB>


> <PDB ID(s) for Ligand-Target Complex>


> <PubChem CID of Ligand>
118710286

> <PubChem SID of Ligand>
103949130

> <ChEBI ID of Ligand>


> <ChEMBL ID of Ligand>
CHEMBL3322721

> <DrugBank ID of Ligand>


> <IUPHAR_GRAC ID of Ligand>


> <KEGG ID of Ligand>


> <ZINC ID of Ligand>
ZINC13756992

> <Number of Protein Chains in Target (bigger than 1 implies a multichain complex)>
1

> <BindingDB Target Chain Sequence>
YVIMGIANKRSIAFGVAKVLDQLGAKLVFTYRKERSRKELEKLLEQLNQPEAHLYQIDVQSDEEVINGFEQIGKDVGNIDGVYHSIAFANMEDLRGRFSETSREGFLLAQDISSYSLTIVAHEAKKLMPEGGSIVATTYLGGEFAVQNYNVMGVAKASLEANVKYLALDLGPDNIRVNAISAGPIRTLSAKGVGGFNTILKEIEERAPLKRNVDQVEVGKTAAYLLSDLSSGVTGENIHVDSG

> <PDB ID(s) of Target Chain>
3GNS,3GNT,3GR6,4ALI,4ALJ,4ALK,4ALL,4ALM,4ALN,4BNF,4BNG,4BNH,4BNI,4BNJ,4BNK,4BNL,4BNM,4BNN,4CUZ,4CV0,4CV1,4D41,4D42,4D43,4D44,4D45,4FS3,4NZ9,6TBB,6TBC,6YUR

> <UniProt (SwissProt) Recommended Name of Target Chain>
Enoyl-[acyl-carrier-protein] reductase [NADPH] FabI

> <UniProt (SwissProt) Entry Name of Target Chain>
FABI_STAAR

> <UniProt (SwissProt) Primary ID of Target Chain>
Q6GI75

> <UniProt (SwissProt) Secondary ID(s) of Target Chain>


> <UniProt (SwissProt) Alternative ID(s) of Target Chain>


> <UniProt (TrEMBL) Submitted Name of Target Chain>


> <UniProt (TrEMBL) Entry Name of Target Chain>


> <UniProt (TrEMBL) Primary ID of Target Chain>


> <UniProt (TrEMBL) Secondary ID(s) of Target Chain>


> <UniProt (TrEMBL) Alternative ID(s) of Target Chain>


$$$$
BindingDB_50280908_3D

Vconf v2.1
 43 46  0  0  0  0  0  0  0  0999 V2000
    7.4910   -3.4000    0.9130 C   0  0  0  0  0  0  0  0  0  0  0
   12.0180    2.0400   -1.7460 C   0  0  0  0  0  0  0  0  0  0  0
   13.1430    2.7760   -2.1730 C   0  0  0  0  0  0  0  0  0  0  0
   12.9900    3.9260   -2.8750 N   0  0  0  0  0  0  0  0  0  0  0
   10.7460    2.5570   -2.0820 C   0  0  0  0  0  0  0  0  0  0  0
   10.6130    3.7530   -2.8120 C   0  0  0  0  0  0  0  0  0  0  0
   11.7800    4.4340   -3.2050 C   0  0  0  0  0  0  0  0  0  0  0
   11.7330    5.5850   -3.9070 N   0  0  0  0  0  0  0  0  0  0  0
   10.5820    6.1760   -4.2880 C   0  0  0  0  0  0  0  0  0  0  0
    9.2630    5.6070   -3.9640 C   0  0  0  0  0  0  0  0  0  0  0
    9.2800    4.2810   -3.1590 C   0  0  0  0  0  0  0  0  0  0  0
   10.6450    7.2420   -4.9360 O   0  0  0  0  0  0  0  0  0  0  0
   12.2220    0.8430   -1.0150 C   0  0  0  0  0  0  0  0  0  0  0
   11.2080    0.0110   -0.5240 C   0  0  0  0  0  0  0  0  0  0  0
   11.4680   -1.1670    0.1910 C   0  0  0  0  0  0  0  0  0  0  0
   10.4020   -1.9430    0.6450 N   0  0  0  0  0  0  0  0  0  0  0
   12.6330   -1.5570    0.4320 O   0  0  0  0  0  0  0  0  0  0  0
    9.3090   -1.6580    1.5710 C   0  0  0  0  0  0  0  0  0  0  0
    8.8660   -3.1160    1.3510 C   0  0  0  0  0  0  0  0  0  0  0
    9.9970   -3.3070    0.3240 C   0  0  0  0  0  0  0  0  0  0  0
    6.5680   -2.4050    0.8590 N   0  0  0  0  0  0  0  0  0  0  0
    5.2840   -2.6030    0.4680 C   0  0  0  0  0  0  0  0  0  0  0
    4.8630   -3.8890    0.0960 C   0  0  0  0  0  0  0  0  0  0  0
    5.7890   -4.9430    0.1390 C   0  0  0  0  0  0  0  0  0  0  0
    7.1110   -4.7050    0.5490 C   0  0  0  0  0  0  0  0  0  0  0
   14.0880    2.4530   -1.9600 H   0  0  0  0  0  0  0  0  0  0  0
    9.8970    2.0680   -1.8010 H   0  0  0  0  0  0  0  0  0  0  0
   12.5690    6.0100   -4.1510 H   0  0  0  0  0  0  0  0  0  0  0
    8.7320    5.4360   -4.9010 H   0  0  0  0  0  0  0  0  0  0  0
    8.7070    6.3510   -3.3920 H   0  0  0  0  0  0  0  0  0  0  0
    8.7540    3.5250   -3.7440 H   0  0  0  0  0  0  0  0  0  0  0
    8.7230    4.4400   -2.2340 H   0  0  0  0  0  0  0  0  0  0  0
   13.1880    0.5600   -0.8310 H   0  0  0  0  0  0  0  0  0  0  0
   10.2310    0.2560   -0.6830 H   0  0  0  0  0  0  0  0  0  0  0
    8.6310   -0.8760    1.2270 H   0  0  0  0  0  0  0  0  0  0  0
    9.6180   -1.4150    2.5880 H   0  0  0  0  0  0  0  0  0  0  0
    9.0240   -3.7150    2.2490 H   0  0  0  0  0  0  0  0  0  0  0
    9.6960   -3.4460   -0.7150 H   0  0  0  0  0  0  0  0  0  0  0
   10.7290   -4.0760    0.5730 H   0  0  0  0  0  0  0  0  0  0  0
    4.6290   -1.8210    0.4450 H   0  0  0  0  0  0  0  0  0  0  0
    3.9010   -4.0550   -0.2000 H   0  0  0  0  0  0  0  0  0  0  0
    5.5010   -5.8850   -0.1280 H   0  0  0  0  0  0  0  0  0  0  0
    7.7860   -5.4700    0.5810 H   0  0  0  0  0  0  0  0  0  0  0
  1 19  1  0  0  0  0
  1 21  2  0  0  0  0
  1 25  1  0  0  0  0
  2  3  2  0  0  0  0
  2  5  1  0  0  0  0
  2 13  1  0  0  0  0
  3  4  1  0  0  0  0
  3 26  1  0  0  0  0
  4  7  2  0  0  0  0
  5  6  2  0  0  0  0
  5 27  1  0  0  0  0
  6  7  1  0  0  0  0
  6 11  1  0  0  0  0
  7  8  1  0  0  0  0
  8  9  1  0  0  0  0
  8 28  1  0  0  0  0
  9 10  1  0  0  0  0
  9 12  2  0  0  0  0
 10 11  1  0  0  0  0
 10 29  1  0  0  0  0
 10 30  1  0  0  0  0
 11 31  1  0  0  0  0
 11 32  1  0  0  0  0
 13 14  2  0  0  0  0
 13 33  1  0  0  0  0
 14 15  1  0  0  0  0
 14 34  1  0  0  0  0
 15 16  1  0  0  0  0
 15 17  2  0  0  0  0
 16 18  1  0  0  0  0
 16 20  1  0  0  0  0
 18 19  1  0  0  0  0
 18 35  1  0  0  0  0
 18 36  1  0  0  0  0
 19 20  1  0  0  0  0
 19 37  1  0  0  0  0
 20 38  1  0  0  0  0
 20 39  1  0  0  0  0
 21 22  1  0  0  0  0
 22 23  2  0  0  0  0
 22 40  1  0  0  0  0
 23 24  1  0  0  0  0
 23 41  1  0  0  0  0
 24 25  2  0  0  0  0
 24 42  1  0  0  0  0
 25 43  1  0  0  0  0
M  END
> <From>
www.bindingDB.org

> <BindingDB Reactant_set_id>
50280908

> <Ligand InChI>
InChI=1S/C19H18N4O2/c24-17-6-5-14-9-13(10-21-19(14)22-17)4-7-18(25)23-11-15(12-23)16-3-1-2-8-20-16/h1-4,7-10,15H,5-6,11-12H2,(H,21,22,24)/b7-4+

> <Ligand InChI Key>
CLCRJHVGALVENL-QPJJXVBHSA-N

> <BindingDB MonomerID>
50052235

> <BindingDB Ligand Name>
CHEMBL3322722

> <Target Name>
Enoyl-[acyl-carrier-protein] reductase [NADPH] FabI [9-251]

> <Target Source Organism According to Curator or DataSource>
Staphylococcus aureus

> <Ki (nM)>


> <IC50 (nM)>
 242

> <Kd (nM)>


> <EC50 (nM)>


> <kon (M-1-s-1)>


> <koff (s-1)>


> <pH>


> <Temp C>


> <Curation/DataSource>
ChEMBL

> <Article DOI>
10.1016/j.ejmech.2014.07.036

> <BindingDB Entry DOI>
10.7270/Q2CJ8G45

> <PMID>
25036796

> <PubChem AID>


> <Patent Number>


> <Authors>
Takhi, M; Sreenivas, K; Reddy, CK; Munikumar, M; Praveena, K; Sudheer, P; Rao, BN; Ramakanth, G; Sivaranjani, J; Mulik, S; Reddy, YR; Narasimha Rao, K; Pallavi, R; Lakshminarasimhan, A; Panigrahi, SK; Antony, T; Abdullah, I; Lee, YK; Ramachandra, M; Yusof, R; Rahman, NA; Subramanya, H

> <Institution>
Aurigene Discovery Technologies Ltd

> <Link to Ligand in BindingDB>
http://www.bindingdb.org/bind/chemsearch/marvin/MolStructure.jsp?monomerid=50052235

> <Link to Ligand-Target Pair in BindingDB>
http://www.bindingdb.org/jsp/dbsearch/PrimarySearch_ki.jsp?energyterm=kJ/mole&tag=pol&polymerid=50004708&target=Enoyl-%5Bacyl-carrier-protein%5D+reductase+%5BNADPH%5D+FabI+%5B9-251%5D&column=ki&startPg=0&Increment=50&submit=Search

> <Link to Ligand-Target Pair in BindingDB>
http://www.bindingdb.org/jsp/dbsearch/PrimarySearch_ki.jsp?energyterm=kJ/mole&tag=r21&monomerid=50052235&enzyme=Enoyl-%5Bacyl-carrier-protein%5D+reductase+%5BNADPH%5D+FabI+%5B9-251%5D&column=ki&startPg=0&Increment=50&submit=Search

> <Ligand HET ID in PDB>


> <PDB ID(s) for Ligand-Target Complex>


> <PubChem CID of Ligand>
118710287

> <PubChem SID of Ligand>
103949131

> <ChEBI ID of Ligand>


> <ChEMBL ID of Ligand>
CHEMBL3322722

> <DrugBank ID of Ligand>


> <IUPHAR_GRAC ID of Ligand>


> <KEGG ID of Ligand>


> <ZINC ID of Ligand>
ZINC06119198

> <Number of Protein Chains in Target (bigger than 1 implies a multichain complex)>
1

> <BindingDB Target Chain Sequence>
YVIMGIANKRSIAFGVAKVLDQLGAKLVFTYRKERSRKELEKLLEQLNQPEAHLYQIDVQSDEEVINGFEQIGKDVGNIDGVYHSIAFANMEDLRGRFSETSREGFLLAQDISSYSLTIVAHEAKKLMPEGGSIVATTYLGGEFAVQNYNVMGVAKASLEANVKYLALDLGPDNIRVNAISAGPIRTLSAKGVGGFNTILKEIEERAPLKRNVDQVEVGKTAAYLLSDLSSGVTGENIHVDSG

> <PDB ID(s) of Target Chain>
3GNS,3GNT,3GR6,4ALI,4ALJ,4ALK,4ALL,4ALM,4ALN,4BNF,4BNG,4BNH,4BNI,4BNJ,4BNK,4BNL,4BNM,4BNN,4CUZ,4CV0,4CV1,4D41,4D42,4D43,4D44,4D45,4FS3,4NZ9,6TBB,6TBC,6YUR

> <UniProt (SwissProt) Recommended Name of Target Chain>
Enoyl-[acyl-carrier-protein] reductase [NADPH] FabI

> <UniProt (SwissProt) Entry Name of Target Chain>
FABI_STAAR

> <UniProt (SwissProt) Primary ID of Target Chain>
Q6GI75

> <UniProt (SwissProt) Secondary ID(s) of Target Chain>


> <UniProt (SwissProt) Alternative ID(s) of Target Chain>


> <UniProt (TrEMBL) Submitted Name of Target Chain>


> <UniProt (TrEMBL) Entry Name of Target Chain>


> <UniProt (TrEMBL) Primary ID of Target Chain>


> <UniProt (TrEMBL) Secondary ID(s) of Target Chain>


> <UniProt (TrEMBL) Alternative ID(s) of Target Chain>


$$$$
BindingDB_50280880_3D

Vconf v2.1
 48 51  0  0  0  0  0  0  0  0999 V2000
   18.4650   -5.5940   -0.0050 C   0  0  0  0  0  0  0  0  0  0  0
   19.3130   -5.9370    1.0720 C   0  0  0  0  0  0  0  0  0  0  0
   20.2830   -6.8710    0.9120 N   0  0  0  0  0  0  0  0  0  0  0
   18.6760   -6.2670   -1.2280 C   0  0  0  0  0  0  0  0  0  0  0
   19.6910   -7.2300   -1.3700 C   0  0  0  0  0  0  0  0  0  0  0
   20.5000   -7.5210   -0.2560 C   0  0  0  0  0  0  0  0  0  0  0
   21.4910   -8.4330   -0.3130 N   0  0  0  0  0  0  0  0  0  0  0
   21.7880   -9.1380   -1.4240 C   0  0  0  0  0  0  0  0  0  0  0
   21.0420   -8.9710   -2.6830 C   0  0  0  0  0  0  0  0  0  0  0
   19.9040   -7.9180   -2.6570 C   0  0  0  0  0  0  0  0  0  0  0
   22.7240   -9.9650   -1.3750 O   0  0  0  0  0  0  0  0  0  0  0
   17.4340   -4.6260    0.0720 C   0  0  0  0  0  0  0  0  0  0  0
   17.1010   -3.8840    1.2130 C   0  0  0  0  0  0  0  0  0  0  0
   16.0690   -2.9340    1.2360 C   0  0  0  0  0  0  0  0  0  0  0
   15.2720   -2.6540    0.1220 N   0  0  0  0  0  0  0  0  0  0  0
   15.8590   -2.2920    2.2880 O   0  0  0  0  0  0  0  0  0  0  0
   15.1250   -1.4310   -0.6600 C   0  0  0  0  0  0  0  0  0  0  0
   14.1600   -2.2340   -1.5450 C   0  0  0  0  0  0  0  0  0  0  0
   14.2630   -3.4340   -0.5920 C   0  0  0  0  0  0  0  0  0  0  0
   14.6460   -2.4800   -2.9800 C   0  0  0  0  0  0  0  0  0  0  0
   15.9780   -3.0040   -2.9500 O   0  0  0  0  0  0  0  0  0  0  0
   16.6820   -3.2990   -4.0810 C   0  0  0  0  0  0  0  0  0  0  0
   16.1550   -3.1950   -5.3860 C   0  0  0  0  0  0  0  0  0  0  0
   16.9490   -3.5220   -6.5000 C   0  0  0  0  0  0  0  0  0  0  0
   18.2720   -3.9570   -6.3180 C   0  0  0  0  0  0  0  0  0  0  0
   18.8030   -4.0610   -5.0210 C   0  0  0  0  0  0  0  0  0  0  0
   18.0100   -3.7290   -3.9100 C   0  0  0  0  0  0  0  0  0  0  0
   19.2130   -5.4920    1.9830 H   0  0  0  0  0  0  0  0  0  0  0
   18.0850   -6.0580   -2.0340 H   0  0  0  0  0  0  0  0  0  0  0
   22.0180   -8.5920    0.4850 H   0  0  0  0  0  0  0  0  0  0  0
   20.6110   -9.9370   -2.9490 H   0  0  0  0  0  0  0  0  0  0  0
   21.7530   -8.6920   -3.4620 H   0  0  0  0  0  0  0  0  0  0  0
   18.9750   -8.4170   -2.9360 H   0  0  0  0  0  0  0  0  0  0  0
   20.1220   -7.1630   -3.4150 H   0  0  0  0  0  0  0  0  0  0  0
   16.8900   -4.4510   -0.7760 H   0  0  0  0  0  0  0  0  0  0  0
   17.6280   -4.0220    2.0750 H   0  0  0  0  0  0  0  0  0  0  0
   14.6750   -0.6000   -0.1150 H   0  0  0  0  0  0  0  0  0  0  0
   16.0370   -1.0730   -1.1410 H   0  0  0  0  0  0  0  0  0  0  0
   13.1590   -1.8090   -1.6140 H   0  0  0  0  0  0  0  0  0  0  0
   14.6000   -4.3710   -1.0370 H   0  0  0  0  0  0  0  0  0  0  0
   13.3600   -3.6380   -0.0160 H   0  0  0  0  0  0  0  0  0  0  0
   13.9730   -3.1900   -3.4640 H   0  0  0  0  0  0  0  0  0  0  0
   14.6300   -1.5350   -3.5240 H   0  0  0  0  0  0  0  0  0  0  0
   15.1960   -2.8810   -5.5310 H   0  0  0  0  0  0  0  0  0  0  0
   16.5630   -3.4440   -7.4420 H   0  0  0  0  0  0  0  0  0  0  0
   18.8480   -4.1950   -7.1260 H   0  0  0  0  0  0  0  0  0  0  0
   19.7650   -4.3740   -4.8870 H   0  0  0  0  0  0  0  0  0  0  0
   18.4020   -3.8010   -2.9710 H   0  0  0  0  0  0  0  0  0  0  0
  1  2  2  0  0  0  0
  1  4  1  0  0  0  0
  1 12  1  0  0  0  0
  2  3  1  0  0  0  0
  2 28  1  0  0  0  0
  3  6  2  0  0  0  0
  4  5  2  0  0  0  0
  4 29  1  0  0  0  0
  5  6  1  0  0  0  0
  5 10  1  0  0  0  0
  6  7  1  0  0  0  0
  7  8  1  0  0  0  0
  7 30  1  0  0  0  0
  8  9  1  0  0  0  0
  8 11  2  0  0  0  0
  9 10  1  0  0  0  0
  9 31  1  0  0  0  0
  9 32  1  0  0  0  0
 10 33  1  0  0  0  0
 10 34  1  0  0  0  0
 12 13  2  0  0  0  0
 12 35  1  0  0  0  0
 13 14  1  0  0  0  0
 13 36  1  0  0  0  0
 14 15  1  0  0  0  0
 14 16  2  0  0  0  0
 15 17  1  0  0  0  0
 15 19  1  0  0  0  0
 17 18  1  0  0  0  0
 17 37  1  0  0  0  0
 17 38  1  0  0  0  0
 18 19  1  0  0  0  0
 18 20  1  0  0  0  0
 18 39  1  0  0  0  0
 19 40  1  0  0  0  0
 19 41  1  0  0  0  0
 20 21  1  0  0  0  0
 20 42  1  0  0  0  0
 20 43  1  0  0  0  0
 21 22  1  0  0  0  0
 22 23  2  0  0  0  0
 22 27  1  0  0  0  0
 23 24  1  0  0  0  0
 23 44  1  0  0  0  0
 24 25  2  0  0  0  0
 24 45  1  0  0  0  0
 25 26  1  0  0  0  0
 25 46  1  0  0  0  0
 26 27  2  0  0  0  0
 26 47  1  0  0  0  0
 27 48  1  0  0  0  0
M  END
> <From>
www.bindingDB.org

> <BindingDB Reactant_set_id>
50280880

> <Ligand InChI>
InChI=1S/C21H21N3O3/c25-19-8-7-17-10-15(11-22-21(17)23-19)6-9-20(26)24-12-16(13-24)14-27-18-4-2-1-3-5-18/h1-6,9-11,16H,7-8,12-14H2,(H,22,23,25)/b9-6+

> <Ligand InChI Key>
UVJLFLCCLXYDAU-RMKNXTFCSA-N

> <BindingDB MonomerID>
50052223

> <BindingDB Ligand Name>
CHEMBL3322706

> <Target Name>
Enoyl-[acyl-carrier-protein] reductase [NADPH] FabI [9-251]

> <Target Source Organism According to Curator or DataSource>
Staphylococcus aureus

> <Ki (nM)>


> <IC50 (nM)>
 265

> <Kd (nM)>


> <EC50 (nM)>


> <kon (M-1-s-1)>


> <koff (s-1)>


> <pH>


> <Temp C>


> <Curation/DataSource>
ChEMBL

> <Article DOI>
10.1016/j.ejmech.2014.07.036

> <BindingDB Entry DOI>
10.7270/Q2CJ8G45

> <PMID>
25036796

> <PubChem AID>


> <Patent Number>


> <Authors>
Takhi, M; Sreenivas, K; Reddy, CK; Munikumar, M; Praveena, K; Sudheer, P; Rao, BN; Ramakanth, G; Sivaranjani, J; Mulik, S; Reddy, YR; Narasimha Rao, K; Pallavi, R; Lakshminarasimhan, A; Panigrahi, SK; Antony, T; Abdullah, I; Lee, YK; Ramachandra, M; Yusof, R; Rahman, NA; Subramanya, H

> <Institution>
Aurigene Discovery Technologies Ltd

> <Link to Ligand in BindingDB>
http://www.bindingdb.org/bind/chemsearch/marvin/MolStructure.jsp?monomerid=50052223

> <Link to Ligand-Target Pair in BindingDB>
http://www.bindingdb.org/jsp/dbsearch/PrimarySearch_ki.jsp?energyterm=kJ/mole&tag=pol&polymerid=50004708&target=Enoyl-%5Bacyl-carrier-protein%5D+reductase+%5BNADPH%5D+FabI+%5B9-251%5D&column=ki&startPg=0&Increment=50&submit=Search

> <Link to Ligand-Target Pair in BindingDB>
http://www.bindingdb.org/jsp/dbsearch/PrimarySearch_ki.jsp?energyterm=kJ/mole&tag=r21&monomerid=50052223&enzyme=Enoyl-%5Bacyl-carrier-protein%5D+reductase+%5BNADPH%5D+FabI+%5B9-251%5D&column=ki&startPg=0&Increment=50&submit=Search

> <Ligand HET ID in PDB>


> <PDB ID(s) for Ligand-Target Complex>


> <PubChem CID of Ligand>
118710272

> <PubChem SID of Ligand>
103949119

> <ChEBI ID of Ligand>


> <ChEMBL ID of Ligand>
CHEMBL3322706

> <DrugBank ID of Ligand>


> <IUPHAR_GRAC ID of Ligand>


> <KEGG ID of Ligand>


> <ZINC ID of Ligand>
ZINC13757013

> <Number of Protein Chains in Target (bigger than 1 implies a multichain complex)>
1

> <BindingDB Target Chain Sequence>
YVIMGIANKRSIAFGVAKVLDQLGAKLVFTYRKERSRKELEKLLEQLNQPEAHLYQIDVQSDEEVINGFEQIGKDVGNIDGVYHSIAFANMEDLRGRFSETSREGFLLAQDISSYSLTIVAHEAKKLMPEGGSIVATTYLGGEFAVQNYNVMGVAKASLEANVKYLALDLGPDNIRVNAISAGPIRTLSAKGVGGFNTILKEIEERAPLKRNVDQVEVGKTAAYLLSDLSSGVTGENIHVDSG

> <PDB ID(s) of Target Chain>
3GNS,3GNT,3GR6,4ALI,4ALJ,4ALK,4ALL,4ALM,4ALN,4BNF,4BNG,4BNH,4BNI,4BNJ,4BNK,4BNL,4BNM,4BNN,4CUZ,4CV0,4CV1,4D41,4D42,4D43,4D44,4D45,4FS3,4NZ9,6TBB,6TBC,6YUR

> <UniProt (SwissProt) Recommended Name of Target Chain>
Enoyl-[acyl-carrier-protein] reductase [NADPH] FabI

> <UniProt (SwissProt) Entry Name of Target Chain>
FABI_STAAR

> <UniProt (SwissProt) Primary ID of Target Chain>
Q6GI75

> <UniProt (SwissProt) Secondary ID(s) of Target Chain>


> <UniProt (SwissProt) Alternative ID(s) of Target Chain>


> <UniProt (TrEMBL) Submitted Name of Target Chain>


> <UniProt (TrEMBL) Entry Name of Target Chain>


> <UniProt (TrEMBL) Primary ID of Target Chain>


> <UniProt (TrEMBL) Secondary ID(s) of Target Chain>


> <UniProt (TrEMBL) Alternative ID(s) of Target Chain>


$$$$
BindingDB_50280915_3D

Vconf v2.1
 71 76  0  0  0  0  0  0  0  0999 V2000
    7.0770   -8.3470    0.4040 C   0  0  0  0  0  0  0  0  0  0  0
    7.4310   -9.4340   -0.4200 C   0  0  0  0  0  0  0  0  0  0  0
    7.9650  -10.5550    0.1230 N   0  0  0  0  0  0  0  0  0  0  0
    7.2580   -8.5120    1.7900 C   0  0  0  0  0  0  0  0  0  0  0
    6.5630   -7.1150   -0.0700 C   0  0  0  0  0  0  0  0  0  0  0
    6.3390   -6.7900   -1.4130 C   0  0  0  0  0  0  0  0  0  0  0
    5.8520   -5.5380   -1.8200 C   0  0  0  0  0  0  0  0  0  0  0
    5.5480   -4.5170   -0.9130 N   0  0  0  0  0  0  0  0  0  0  0
    5.7120   -5.3060   -3.0400 O   0  0  0  0  0  0  0  0  0  0  0
    4.4990   -4.3520    0.0910 C   0  0  0  0  0  0  0  0  0  0  0
    5.2090   -3.0440    0.4880 C   0  0  0  0  0  0  0  0  0  0  0
    6.1840   -3.2230   -0.6900 C   0  0  0  0  0  0  0  0  0  0  0
    5.8250   -2.9940    1.8230 C   0  0  0  0  0  0  0  0  0  0  0
    6.6830   -1.9930    2.2840 C   0  0  0  0  0  0  0  0  0  0  0
    5.6470   -3.9390    2.7820 O   0  0  0  0  0  0  0  0  0  0  0
    6.3820   -3.5600    3.8510 C   0  0  0  0  0  0  0  0  0  0  0
    7.0440   -2.3650    3.5720 C   0  0  0  0  0  0  0  0  0  0  0
    7.8930   -1.7690    4.5180 C   0  0  0  0  0  0  0  0  0  0  0
    8.0640   -2.4080    5.7630 C   0  0  0  0  0  0  0  0  0  0  0
    7.3860   -3.6140    6.0490 C   0  0  0  0  0  0  0  0  0  0  0
    6.5340   -4.1980    5.0920 C   0  0  0  0  0  0  0  0  0  0  0
    7.1070   -0.8000    1.5390 C   0  0  0  0  0  0  0  0  0  0  0
    8.1930  -10.7210    1.4490 C   0  0  0  0  0  0  0  0  0  0  0
    7.8040   -9.6910    2.3340 C   0  0  0  0  0  0  0  0  0  0  0
    7.9470   -9.8170    3.7880 C   0  0  0  0  0  0  0  0  0  0  0
    8.7900  -11.8940    1.7730 N   0  0  0  0  0  0  0  0  0  0  0
    9.3730  -10.0790    4.0500 N   0  0  0  0  0  0  0  0  0  0  0
    9.3440  -12.3130    2.9390 C   0  0  0  0  0  0  0  0  0  0  0
    9.6110  -11.5310    4.1600 C   0  0  0  0  0  0  0  0  0  0  0
    9.7300  -13.5030    2.9490 O   0  0  0  0  0  0  0  0  0  0  0
    9.8800   -9.3690    5.2440 C   0  0  0  0  0  0  0  0  0  0  0
    9.7860   -7.8340    5.1140 C   0  0  0  0  0  0  0  0  0  0  0
    9.8800   -7.3790    3.7100 N   0  0  0  0  0  0  0  0  0  0  0
   11.2440   -7.5510    3.1720 C   0  0  0  0  0  0  0  0  0  0  0
   11.2660   -7.1080    1.7020 C   0  0  0  0  0  0  0  0  0  0  0
   10.8230   -5.7550    1.6090 O   0  0  0  0  0  0  0  0  0  0  0
    9.5260   -5.4960    2.1430 C   0  0  0  0  0  0  0  0  0  0  0
    9.4640   -5.9660    3.6040 C   0  0  0  0  0  0  0  0  0  0  0
    7.3070   -9.3940   -1.4320 H   0  0  0  0  0  0  0  0  0  0  0
    6.9990   -7.7550    2.4260 H   0  0  0  0  0  0  0  0  0  0  0
    6.3540   -6.3960    0.6270 H   0  0  0  0  0  0  0  0  0  0  0
    6.5480   -7.4720   -2.1410 H   0  0  0  0  0  0  0  0  0  0  0
    4.4370   -5.1390    0.8440 H   0  0  0  0  0  0  0  0  0  0  0
    3.5010   -4.2170   -0.3290 H   0  0  0  0  0  0  0  0  0  0  0
    4.5720   -2.1620    0.4040 H   0  0  0  0  0  0  0  0  0  0  0
    7.2500   -3.2770   -0.4560 H   0  0  0  0  0  0  0  0  0  0  0
    6.0510   -2.5130   -1.5070 H   0  0  0  0  0  0  0  0  0  0  0
    8.3800   -0.8960    4.3130 H   0  0  0  0  0  0  0  0  0  0  0
    8.6810   -1.9960    6.4630 H   0  0  0  0  0  0  0  0  0  0  0
    7.5150   -4.0660    6.9550 H   0  0  0  0  0  0  0  0  0  0  0
    6.0440   -5.0710    5.2910 H   0  0  0  0  0  0  0  0  0  0  0
    7.7690   -0.1810    2.1430 H   0  0  0  0  0  0  0  0  0  0  0
    7.6350   -1.1030    0.6350 H   0  0  0  0  0  0  0  0  0  0  0
    6.2300   -0.2120    1.2660 H   0  0  0  0  0  0  0  0  0  0  0
    7.6170   -8.9010    4.2810 H   0  0  0  0  0  0  0  0  0  0  0
    7.3170  -10.6310    4.1500 H   0  0  0  0  0  0  0  0  0  0  0
    8.8480  -12.5330    1.0480 H   0  0  0  0  0  0  0  0  0  0  0
   10.6630  -11.6810    4.4080 H   0  0  0  0  0  0  0  0  0  0  0
    9.0110  -11.9400    4.9750 H   0  0  0  0  0  0  0  0  0  0  0
    9.3240   -9.6880    6.1270 H   0  0  0  0  0  0  0  0  0  0  0
   10.9310   -9.6280    5.3810 H   0  0  0  0  0  0  0  0  0  0  0
    8.8240   -7.5230    5.5240 H   0  0  0  0  0  0  0  0  0  0  0
   10.5730   -7.3730    5.7140 H   0  0  0  0  0  0  0  0  0  0  0
   11.9550   -6.9500    3.7410 H   0  0  0  0  0  0  0  0  0  0  0
   11.5380   -8.6000    3.2260 H   0  0  0  0  0  0  0  0  0  0  0
   12.2810   -7.1840    1.3120 H   0  0  0  0  0  0  0  0  0  0  0
   10.6080   -7.7540    1.1170 H   0  0  0  0  0  0  0  0  0  0  0
    9.3210   -4.4260    2.0960 H   0  0  0  0  0  0  0  0  0  0  0
    8.7770   -6.0260    1.5560 H   0  0  0  0  0  0  0  0  0  0  0
   10.1130   -5.3340    4.2130 H   0  0  0  0  0  0  0  0  0  0  0
    8.4380   -5.8660    3.9530 H   0  0  0  0  0  0  0  0  0  0  0
  1  2  2  0  0  0  0
  1  4  1  0  0  0  0
  1  5  1  0  0  0  0
  2  3  1  0  0  0  0
  2 39  1  0  0  0  0
  3 23  2  0  0  0  0
  4 24  2  0  0  0  0
  4 40  1  0  0  0  0
  5  6  2  0  0  0  0
  5 41  1  0  0  0  0
  6  7  1  0  0  0  0
  6 42  1  0  0  0  0
  7  8  1  0  0  0  0
  7  9  2  0  0  0  0
  8 10  1  0  0  0  0
  8 12  1  0  0  0  0
 10 11  1  0  0  0  0
 10 43  1  0  0  0  0
 10 44  1  0  0  0  0
 11 12  1  0  0  0  0
 11 13  1  0  0  0  0
 11 45  1  0  0  0  0
 12 46  1  0  0  0  0
 12 47  1  0  0  0  0
 13 14  2  0  0  0  0
 13 15  1  0  0  0  0
 14 17  1  0  0  0  0
 14 22  1  0  0  0  0
 15 16  1  0  0  0  0
 16 17  2  0  0  0  0
 16 21  1  0  0  0  0
 17 18  1  0  0  0  0
 18 19  2  0  0  0  0
 18 48  1  0  0  0  0
 19 20  1  0  0  0  0
 19 49  1  0  0  0  0
 20 21  2  0  0  0  0
 20 50  1  0  0  0  0
 21 51  1  0  0  0  0
 22 52  1  0  0  0  0
 22 53  1  0  0  0  0
 22 54  1  0  0  0  0
 23 24  1  0  0  0  0
 23 26  1  0  0  0  0
 24 25  1  0  0  0  0
 25 27  1  0  0  0  0
 25 55  1  0  0  0  0
 25 56  1  0  0  0  0
 26 28  1  0  0  0  0
 26 57  1  0  0  0  0
 27 29  1  0  0  0  0
 27 31  1  0  0  0  0
 28 29  1  0  0  0  0
 28 30  2  0  0  0  0
 29 58  1  0  0  0  0
 29 59  1  0  0  0  0
 31 32  1  0  0  0  0
 31 60  1  0  0  0  0
 31 61  1  0  0  0  0
 32 33  1  0  0  0  0
 32 62  1  0  0  0  0
 32 63  1  0  0  0  0
 33 34  1  0  0  0  0
 33 38  1  0  0  0  0
 34 35  1  0  0  0  0
 34 64  1  0  0  0  0
 34 65  1  0  0  0  0
 35 36  1  0  0  0  0
 35 66  1  0  0  0  0
 35 67  1  0  0  0  0
 36 37  1  0  0  0  0
 37 38  1  0  0  0  0
 37 68  1  0  0  0  0
 37 69  1  0  0  0  0
 38 70  1  0  0  0  0
 38 71  1  0  0  0  0
M  END
> <From>
www.bindingDB.org

> <BindingDB Reactant_set_id>
50280915

> <Ligand InChI>
InChI=1S/C29H33N5O4/c1-20-24-4-2-3-5-25(24)38-28(20)23-17-34(18-23)27(36)7-6-21-14-22-16-33(9-8-32-10-12-37-13-11-32)19-26(35)31-29(22)30-15-21/h2-7,14-15,23H,8-13,16-19H2,1H3,(H,30,31,35)/b7-6+

> <Ligand InChI Key>
UJLBDPRMLTVUFO-VOTSOKGWSA-N

> <BindingDB MonomerID>
50052242

> <BindingDB Ligand Name>
CHEMBL3322729

> <Target Name>
Enoyl-[acyl-carrier-protein] reductase [NADPH] FabI [9-251]

> <Target Source Organism According to Curator or DataSource>
Staphylococcus aureus

> <Ki (nM)>


> <IC50 (nM)>
 289

> <Kd (nM)>


> <EC50 (nM)>


> <kon (M-1-s-1)>


> <koff (s-1)>


> <pH>


> <Temp C>


> <Curation/DataSource>
ChEMBL

> <Article DOI>
10.1016/j.ejmech.2014.07.036

> <BindingDB Entry DOI>
10.7270/Q2CJ8G45

> <PMID>
25036796

> <PubChem AID>


> <Patent Number>


> <Authors>
Takhi, M; Sreenivas, K; Reddy, CK; Munikumar, M; Praveena, K; Sudheer, P; Rao, BN; Ramakanth, G; Sivaranjani, J; Mulik, S; Reddy, YR; Narasimha Rao, K; Pallavi, R; Lakshminarasimhan, A; Panigrahi, SK; Antony, T; Abdullah, I; Lee, YK; Ramachandra, M; Yusof, R; Rahman, NA; Subramanya, H

> <Institution>
Aurigene Discovery Technologies Ltd

> <Link to Ligand in BindingDB>
http://www.bindingdb.org/bind/chemsearch/marvin/MolStructure.jsp?monomerid=50052242

> <Link to Ligand-Target Pair in BindingDB>
http://www.bindingdb.org/jsp/dbsearch/PrimarySearch_ki.jsp?energyterm=kJ/mole&tag=pol&polymerid=50004708&target=Enoyl-%5Bacyl-carrier-protein%5D+reductase+%5BNADPH%5D+FabI+%5B9-251%5D&column=ki&startPg=0&Increment=50&submit=Search

> <Link to Ligand-Target Pair in BindingDB>
http://www.bindingdb.org/jsp/dbsearch/PrimarySearch_ki.jsp?energyterm=kJ/mole&tag=r21&monomerid=50052242&enzyme=Enoyl-%5Bacyl-carrier-protein%5D+reductase+%5BNADPH%5D+FabI+%5B9-251%5D&column=ki&startPg=0&Increment=50&submit=Search

> <Ligand HET ID in PDB>


> <PDB ID(s) for Ligand-Target Complex>


> <PubChem CID of Ligand>
118710294

> <PubChem SID of Ligand>
103949138

> <ChEBI ID of Ligand>


> <ChEMBL ID of Ligand>
CHEMBL3322729

> <DrugBank ID of Ligand>


> <IUPHAR_GRAC ID of Ligand>


> <KEGG ID of Ligand>


> <ZINC ID of Ligand>
ZINC13756977

> <Number of Protein Chains in Target (bigger than 1 implies a multichain complex)>
1

> <BindingDB Target Chain Sequence>
YVIMGIANKRSIAFGVAKVLDQLGAKLVFTYRKERSRKELEKLLEQLNQPEAHLYQIDVQSDEEVINGFEQIGKDVGNIDGVYHSIAFANMEDLRGRFSETSREGFLLAQDISSYSLTIVAHEAKKLMPEGGSIVATTYLGGEFAVQNYNVMGVAKASLEANVKYLALDLGPDNIRVNAISAGPIRTLSAKGVGGFNTILKEIEERAPLKRNVDQVEVGKTAAYLLSDLSSGVTGENIHVDSG

> <PDB ID(s) of Target Chain>
3GNS,3GNT,3GR6,4ALI,4ALJ,4ALK,4ALL,4ALM,4ALN,4BNF,4BNG,4BNH,4BNI,4BNJ,4BNK,4BNL,4BNM,4BNN,4CUZ,4CV0,4CV1,4D41,4D42,4D43,4D44,4D45,4FS3,4NZ9,6TBB,6TBC,6YUR

> <UniProt (SwissProt) Recommended Name of Target Chain>
Enoyl-[acyl-carrier-protein] reductase [NADPH] FabI

> <UniProt (SwissProt) Entry Name of Target Chain>
FABI_STAAR

> <UniProt (SwissProt) Primary ID of Target Chain>
Q6GI75

> <UniProt (SwissProt) Secondary ID(s) of Target Chain>


> <UniProt (SwissProt) Alternative ID(s) of Target Chain>


> <UniProt (TrEMBL) Submitted Name of Target Chain>


> <UniProt (TrEMBL) Entry Name of Target Chain>


> <UniProt (TrEMBL) Primary ID of Target Chain>


> <UniProt (TrEMBL) Secondary ID(s) of Target Chain>


> <UniProt (TrEMBL) Alternative ID(s) of Target Chain>


$$$$
12

Vconf v2.0 Academic SN VC001-00000579
 39 40  0  0  0  0  0  0  0  0999 V2000
   -3.0710    3.4150    0.7910 C   0  0  0  0  0  0  0  0  0  0  0
   -4.3270    2.7860    0.7810 C   0  0  0  0  0  0  0  0  0  0  0
   -4.4260    1.3910    0.6120 C   0  0  0  0  0  0  0  0  0  0  0
   -3.2480    0.6350    0.4540 C   0  0  0  0  0  0  0  0  0  0  0
   -1.9910    1.2630    0.4640 C   0  0  0  0  0  0  0  0  0  0  0
   -1.8940    2.6620    0.6210 C   0  0  0  0  0  0  0  0  0  0  0
   -2.9980    4.7540    0.9610 O   0  0  0  0  0  0  0  0  0  0  0
   -0.6990    3.3330    0.6560 O   0  0  0  0  0  0  0  0  0  0  0
    0.4200    2.9840   -0.0570 C   0  0  0  0  0  0  0  0  0  0  0
    1.6890    3.0620    0.5580 C   0  0  0  0  0  0  0  0  0  0  0
    0.3360    2.5980   -1.4120 C   0  0  0  0  0  0  0  0  0  0  0
    1.4930    2.2700   -2.1360 C   0  0  0  0  0  0  0  0  0  0  0
    2.7540    2.3360   -1.5170 C   0  0  0  0  0  0  0  0  0  0  0
    2.8490    2.7340   -0.1700 C   0  0  0  0  0  0  0  0  0  0  0
    1.8480    3.5420    2.1760 Cl  0  0  0  0  0  0  0  0  0  0  0
    4.1490    1.9430   -2.3890 Cl  0  0  0  0  0  0  0  0  0  0  0
   -5.7450    0.7250    0.5950 C   0  0  0  0  0  0  0  0  0  0  0
   -5.9590   -0.2490    1.7770 C   0  0  1  0  0  0  0  0  0  0  0
   -5.9920    0.5130    3.1160 C   0  0  0  0  0  0  0  0  0  0  0
   -7.2770   -1.0180    1.5530 C   0  0  0  0  0  0  0  0  0  0  0
   -7.4850   -2.1400    2.5810 C   0  0  0  0  0  0  0  0  0  0  0
   -5.1710    3.3470    0.9020 H   0  0  0  0  0  0  0  0  0  0  0
   -3.3020   -0.3770    0.3320 H   0  0  0  0  0  0  0  0  0  0  0
   -1.1480    0.7000    0.3600 H   0  0  0  0  0  0  0  0  0  0  0
   -2.0820    5.1050    0.9560 H   0  0  0  0  0  0  0  0  0  0  0
   -0.5720    2.5580   -1.8750 H   0  0  0  0  0  0  0  0  0  0  0
    1.4100    1.9880   -3.1140 H   0  0  0  0  0  0  0  0  0  0  0
    3.7660    2.7870    0.2790 H   0  0  0  0  0  0  0  0  0  0  0
   -6.5460    1.4680    0.6160 H   0  0  0  0  0  0  0  0  0  0  0
   -5.8330    0.1700   -0.3410 H   0  0  0  0  0  0  0  0  0  0  0
   -5.1420   -0.9730    1.8030 H   0  0  0  0  0  0  0  0  0  0  0
   -6.1030   -0.1880    3.9420 H   0  0  0  0  0  0  0  0  0  0  0
   -5.0610    1.0640    3.2560 H   0  0  0  0  0  0  0  0  0  0  0
   -6.8270    1.2140    3.1230 H   0  0  0  0  0  0  0  0  0  0  0
   -8.1190   -0.3250    1.6050 H   0  0  0  0  0  0  0  0  0  0  0
   -7.2580   -1.4700    0.5610 H   0  0  0  0  0  0  0  0  0  0  0
   -8.3590   -2.7270    2.2990 H   0  0  0  0  0  0  0  0  0  0  0
   -6.6100   -2.7890    2.6010 H   0  0  0  0  0  0  0  0  0  0  0
   -7.6490   -1.7180    3.5720 H   0  0  0  0  0  0  0  0  0  0  0
  1  2  2  0  0  0  0
  1  6  1  0  0  0  0
  1  7  1  0  0  0  0
  2  3  1  0  0  0  0
  2 22  1  0  0  0  0
  3  4  2  0  0  0  0
  3 17  1  0  0  0  0
  4  5  1  0  0  0  0
  4 23  1  0  0  0  0
  5  6  2  0  0  0  0
  5 24  1  0  0  0  0
  6  8  1  0  0  0  0
  7 25  1  0  0  0  0
  8  9  1  0  0  0  0
  9 10  2  0  0  0  0
  9 11  1  0  0  0  0
 10 14  1  0  0  0  0
 10 15  1  0  0  0  0
 11 12  2  0  0  0  0
 11 26  1  0  0  0  0
 12 13  1  0  0  0  0
 12 27  1  0  0  0  0
 13 14  2  0  0  0  0
 13 16  1  0  0  0  0
 14 28  1  0  0  0  0
 17 18  1  0  0  0  0
 17 29  1  0  0  0  0
 17 30  1  0  0  0  0
 18 19  1  0  0  0  0
 18 20  1  0  0  0  0
 18 31  1  0  0  0  0
 19 32  1  0  0  0  0
 19 33  1  0  0  0  0
 19 34  1  0  0  0  0
 20 21  1  0  0  0  0
 20 35  1  0  0  0  0
 20 36  1  0  0  0  0
 21 37  1  0  0  0  0
 21 38  1  0  0  0  0
 21 39  1  0  0  0  0
M  END
> <From>
www.bindingDB.org

> <BindingDB Reactant_set_id>
46064

> <Ligand InChI>
InChI=1S/C17H18Cl2O2/c1-3-11(2)8-12-4-6-17(15(20)9-12)21-16-7-5-13(18)10-14(16)19/h4-7,9-11,20H,3,8H2,1-2H3

> <Ligand InChI Key>
LHFFQFRAOUEGEB-UHFFFAOYSA-N

> <BindingDB MonomerID>
25411

> <BindingDB Ligand Name>
2-(2,4-dichlorophenoxy)-5-(2-methylbutyl)phenol::Triclosan derivative, 12

> <Target Name>
Enoyl-ACP reductase

> <Target Source Organism According to Curator or DataSource>
Plasmodium falciparum

> <Ki (nM)>


> <IC50 (nM)>
 290

> <Kd (nM)>


> <EC50 (nM)>


> <kon (M-1-s-1)>


> <koff (s-1)>


> <pH>
7.9

> <Temp C>
25.00

> <Curation/DataSource>
Curated from the literature by BindingDB

> <Article DOI>
10.1074/jbc.M701813200

> <BindingDB Entry DOI>
10.7270/Q22V2DFD

> <PMID>
17567585

> <PubChem AID>
aid1798551

> <Patent Number>


> <Authors>
Freundlich, JS; Wang, F; Tsai, HC; Kuo, M; Shieh, HM; Anderson, JW; Nkrumah, LJ; Valderramos, JC; Yu, M; Kumar, TR; Valderramos, SG; Jacobs, WR; Schiehser, GA; Jacobus, DP; Fidock, DA; Sacchettini, JC

> <Institution>
Jacobus Pharmaceutical Company

> <Link to Ligand in BindingDB>
http://www.bindingdb.org/bind/chemsearch/marvin/MolStructure.jsp?monomerid=25411

> <Link to Ligand-Target Pair in BindingDB>
http://www.bindingdb.org/jsp/dbsearch/PrimarySearch_ki.jsp?energyterm=kJ/mole&tag=pol&polymerid=2820&target=Enoyl-ACP+reductase&column=ki&startPg=0&Increment=50&submit=Search

> <Link to Ligand-Target Pair in BindingDB>
http://www.bindingdb.org/jsp/dbsearch/PrimarySearch_ki.jsp?energyterm=kJ/mole&tag=r21&monomerid=25411&enzyme=Enoyl-ACP+reductase&column=ki&startPg=0&Increment=50&submit=Search

> <Ligand HET ID in PDB>


> <PDB ID(s) for Ligand-Target Complex>


> <PubChem CID of Ligand>
25023962

> <PubChem SID of Ligand>
56374550

> <ChEBI ID of Ligand>


> <ChEMBL ID of Ligand>


> <DrugBank ID of Ligand>


> <IUPHAR_GRAC ID of Ligand>


> <KEGG ID of Ligand>


> <ZINC ID of Ligand>
ZINC29061410

> <Number of Protein Chains in Target (bigger than 1 implies a multichain complex)>
1

> <BindingDB Target Chain Sequence>
MNKISQRLLFLFLHFYTTVCFIQNNTQKTFHNVLQNEQIRGKEKAFYRKEKRENIFIGNK
MKHVHNMNNTHNNNHYMEKEEQDASNINKIKEENKNEDICFIAGIGDTNGYGWGIAKELS
KRNVKIIFGIWPPVYNIFMKNYKNGKFDNDMIIDKDKKMNILDMLPFDASFDTANDIDEE
TKNNKRYNMLQNYTIEDVANLIHQKYGKINMLVHSLANAKEVQKDLLNTSRKGYLDALSK
SSYSLISLCKYFVNIMKPQSSIISLTYHASQKVVPGYGGGMSSAKAALESDTRVLAYHLG
RNYNIRINTISAGPLKSRAATAINKLNNTYENNTNQNKNRNRHDVHNIMNNSGEKEEKKI
SASQNYTFIDYAIEYSEKYAPLRQKLLSTDIGSVASFLLSRESRAITGQTIYVDNGLNIM
FLPDDIYRNENE

> <PDB ID(s) of Target Chain>
1NHG,1NHW,1NNU,1UH5,1V35,2FOI,2NQ8,3LSY,3LT0,3LT1,3LT2,3LT4

> <UniProt (SwissProt) Recommended Name of Target Chain>


> <UniProt (SwissProt) Entry Name of Target Chain>


> <UniProt (SwissProt) Primary ID of Target Chain>


> <UniProt (SwissProt) Secondary ID(s) of Target Chain>


> <UniProt (SwissProt) Alternative ID(s) of Target Chain>


> <UniProt (TrEMBL) Submitted Name of Target Chain>
Enoyl-ACP reductase

> <UniProt (TrEMBL) Entry Name of Target Chain>
Q9BJJ9_PLAFA

> <UniProt (TrEMBL) Primary ID of Target Chain>
Q9BJJ9

> <UniProt (TrEMBL) Secondary ID(s) of Target Chain>


> <UniProt (TrEMBL) Alternative ID(s) of Target Chain>


$$$$
BindingDB_50280890_3D

Vconf v2.1
 48 51  0  0  0  0  0  0  0  0999 V2000
    7.6520  -13.4480   -0.0360 C   0  0  0  0  0  0  0  0  0  0  0
    8.2840  -14.0530    1.0730 C   0  0  0  0  0  0  0  0  0  0  0
    8.9820  -15.2050    0.9210 N   0  0  0  0  0  0  0  0  0  0  0
    7.7790  -14.0990   -1.2820 C   0  0  0  0  0  0  0  0  0  0  0
    8.5080  -15.2930   -1.4150 C   0  0  0  0  0  0  0  0  0  0  0
    9.1160  -15.8380   -0.2690 C   0  0  0  0  0  0  0  0  0  0  0
    9.8340  -16.9790   -0.3150 N   0  0  0  0  0  0  0  0  0  0  0
   10.0270  -17.6890   -1.4450 C   0  0  0  0  0  0  0  0  0  0  0
    9.4580  -17.2750   -2.7390 C   0  0  0  0  0  0  0  0  0  0  0
    8.6350  -15.9600   -2.7250 C   0  0  0  0  0  0  0  0  0  0  0
   10.7090  -18.7340   -1.3840 O   0  0  0  0  0  0  0  0  0  0  0
    6.9120  -12.2410    0.0310 C   0  0  0  0  0  0  0  0  0  0  0
    6.6780  -11.4940    1.1930 C   0  0  0  0  0  0  0  0  0  0  0
    5.9410  -10.3000    1.1980 C   0  0  0  0  0  0  0  0  0  0  0
    5.3680   -9.7600    0.0420 N   0  0  0  0  0  0  0  0  0  0  0
    5.8010   -9.6780    2.2730 O   0  0  0  0  0  0  0  0  0  0  0
    4.2740  -10.2040   -0.8170 C   0  0  0  0  0  0  0  0  0  0  0
    4.6250   -9.0060   -1.7100 C   0  0  0  0  0  0  0  0  0  0  0
    5.6450   -8.5160   -0.6700 C   0  0  0  0  0  0  0  0  0  0  0
    5.2070   -9.3680   -3.0850 C   0  0  0  0  0  0  0  0  0  0  0
    6.3600  -10.1990   -2.9110 O   0  0  0  0  0  0  0  0  0  0  0
    7.0930  -10.6760   -3.9580 C   0  0  0  0  0  0  0  0  0  0  0
    6.7250  -10.5190   -5.3110 C   0  0  0  0  0  0  0  0  0  0  0
    7.5310  -11.0500   -6.3340 C   0  0  0  0  0  0  0  0  0  0  0
    8.7110  -11.7440   -6.0120 C   0  0  0  0  0  0  0  0  0  0  0
    9.0840  -11.9010   -4.6660 C   0  0  0  0  0  0  0  0  0  0  0
    8.2780  -11.3660   -3.6460 C   0  0  0  0  0  0  0  0  0  0  0
    9.4570  -12.2390   -6.9580 F   0  0  0  0  0  0  0  0  0  0  0
    8.2310  -13.6360    2.0020 H   0  0  0  0  0  0  0  0  0  0  0
    7.3350  -13.7030   -2.1130 H   0  0  0  0  0  0  0  0  0  0  0
   10.2320  -17.3060    0.5060 H   0  0  0  0  0  0  0  0  0  0  0
    8.8150  -18.0810   -3.0960 H   0  0  0  0  0  0  0  0  0  0  0
   10.2800  -17.1600   -3.4470 H   0  0  0  0  0  0  0  0  0  0  0
    7.6320  -16.1860   -3.0930 H   0  0  0  0  0  0  0  0  0  0  0
    9.1000  -15.2610   -3.4220 H   0  0  0  0  0  0  0  0  0  0  0
    6.5180  -11.8850   -0.8420 H   0  0  0  0  0  0  0  0  0  0  0
    7.0580  -11.8130    2.0840 H   0  0  0  0  0  0  0  0  0  0  0
    4.3820  -11.1890   -1.2720 H   0  0  0  0  0  0  0  0  0  0  0
    3.2890  -10.1540   -0.3500 H   0  0  0  0  0  0  0  0  0  0  0
    3.7940   -8.3210   -1.8850 H   0  0  0  0  0  0  0  0  0  0  0
    5.3580   -7.6150   -0.1280 H   0  0  0  0  0  0  0  0  0  0  0
    6.6720   -8.3960   -1.0180 H   0  0  0  0  0  0  0  0  0  0  0
    4.4450   -9.8960   -3.6600 H   0  0  0  0  0  0  0  0  0  0  0
    5.4860   -8.4500   -3.6050 H   0  0  0  0  0  0  0  0  0  0  0
    5.8700  -10.0210   -5.5580 H   0  0  0  0  0  0  0  0  0  0  0
    7.2550  -10.9320   -7.3090 H   0  0  0  0  0  0  0  0  0  0  0
    9.9400  -12.4030   -4.4250 H   0  0  0  0  0  0  0  0  0  0  0
    8.5560  -11.4820   -2.6710 H   0  0  0  0  0  0  0  0  0  0  0
  1  2  2  0  0  0  0
  1  4  1  0  0  0  0
  1 12  1  0  0  0  0
  2  3  1  0  0  0  0
  2 29  1  0  0  0  0
  3  6  2  0  0  0  0
  4  5  2  0  0  0  0
  4 30  1  0  0  0  0
  5  6  1  0  0  0  0
  5 10  1  0  0  0  0
  6  7  1  0  0  0  0
  7  8  1  0  0  0  0
  7 31  1  0  0  0  0
  8  9  1  0  0  0  0
  8 11  2  0  0  0  0
  9 10  1  0  0  0  0
  9 32  1  0  0  0  0
  9 33  1  0  0  0  0
 10 34  1  0  0  0  0
 10 35  1  0  0  0  0
 12 13  2  0  0  0  0
 12 36  1  0  0  0  0
 13 14  1  0  0  0  0
 13 37  1  0  0  0  0
 14 15  1  0  0  0  0
 14 16  2  0  0  0  0
 15 17  1  0  0  0  0
 15 19  1  0  0  0  0
 17 18  1  0  0  0  0
 17 38  1  0  0  0  0
 17 39  1  0  0  0  0
 18 19  1  0  0  0  0
 18 20  1  0  0  0  0
 18 40  1  0  0  0  0
 19 41  1  0  0  0  0
 19 42  1  0  0  0  0
 20 21  1  0  0  0  0
 20 43  1  0  0  0  0
 20 44  1  0  0  0  0
 21 22  1  0  0  0  0
 22 23  2  0  0  0  0
 22 27  1  0  0  0  0
 23 24  1  0  0  0  0
 23 45  1  0  0  0  0
 24 25  2  0  0  0  0
 24 46  1  0  0  0  0
 25 26  1  0  0  0  0
 25 28  1  0  0  0  0
 26 27  2  0  0  0  0
 26 47  1  0  0  0  0
 27 48  1  0  0  0  0
M  END
> <From>
www.bindingDB.org

> <BindingDB Reactant_set_id>
50280890

> <Ligand InChI>
InChI=1S/C21H20FN3O3/c22-17-3-5-18(6-4-17)28-13-15-11-25(12-15)20(27)8-1-14-9-16-2-7-19(26)24-21(16)23-10-14/h1,3-6,8-10,15H,2,7,11-13H2,(H,23,24,26)/b8-1+

> <Ligand InChI Key>
YRFQLJDHWLCIFE-UNXLUWIOSA-N

> <BindingDB MonomerID>
50052226

> <BindingDB Ligand Name>
CHEMBL3322709

> <Target Name>
Enoyl-[acyl-carrier-protein] reductase [NADPH] FabI [9-251]

> <Target Source Organism According to Curator or DataSource>
Staphylococcus aureus

> <Ki (nM)>


> <IC50 (nM)>
 316

> <Kd (nM)>


> <EC50 (nM)>


> <kon (M-1-s-1)>


> <koff (s-1)>


> <pH>


> <Temp C>


> <Curation/DataSource>
ChEMBL

> <Article DOI>
10.1016/j.ejmech.2014.07.036

> <BindingDB Entry DOI>
10.7270/Q2CJ8G45

> <PMID>
25036796

> <PubChem AID>


> <Patent Number>


> <Authors>
Takhi, M; Sreenivas, K; Reddy, CK; Munikumar, M; Praveena, K; Sudheer, P; Rao, BN; Ramakanth, G; Sivaranjani, J; Mulik, S; Reddy, YR; Narasimha Rao, K; Pallavi, R; Lakshminarasimhan, A; Panigrahi, SK; Antony, T; Abdullah, I; Lee, YK; Ramachandra, M; Yusof, R; Rahman, NA; Subramanya, H

> <Institution>
Aurigene Discovery Technologies Ltd

> <Link to Ligand in BindingDB>
http://www.bindingdb.org/bind/chemsearch/marvin/MolStructure.jsp?monomerid=50052226

> <Link to Ligand-Target Pair in BindingDB>
http://www.bindingdb.org/jsp/dbsearch/PrimarySearch_ki.jsp?energyterm=kJ/mole&tag=pol&polymerid=50004708&target=Enoyl-%5Bacyl-carrier-protein%5D+reductase+%5BNADPH%5D+FabI+%5B9-251%5D&column=ki&startPg=0&Increment=50&submit=Search

> <Link to Ligand-Target Pair in BindingDB>
http://www.bindingdb.org/jsp/dbsearch/PrimarySearch_ki.jsp?energyterm=kJ/mole&tag=r21&monomerid=50052226&enzyme=Enoyl-%5Bacyl-carrier-protein%5D+reductase+%5BNADPH%5D+FabI+%5B9-251%5D&column=ki&startPg=0&Increment=50&submit=Search

> <Ligand HET ID in PDB>


> <PDB ID(s) for Ligand-Target Complex>


> <PubChem CID of Ligand>
118710275

> <PubChem SID of Ligand>
103949122

> <ChEBI ID of Ligand>


> <ChEMBL ID of Ligand>
CHEMBL3322709

> <DrugBank ID of Ligand>


> <IUPHAR_GRAC ID of Ligand>


> <KEGG ID of Ligand>


> <ZINC ID of Ligand>
ZINC13757023

> <Number of Protein Chains in Target (bigger than 1 implies a multichain complex)>
1

> <BindingDB Target Chain Sequence>
YVIMGIANKRSIAFGVAKVLDQLGAKLVFTYRKERSRKELEKLLEQLNQPEAHLYQIDVQSDEEVINGFEQIGKDVGNIDGVYHSIAFANMEDLRGRFSETSREGFLLAQDISSYSLTIVAHEAKKLMPEGGSIVATTYLGGEFAVQNYNVMGVAKASLEANVKYLALDLGPDNIRVNAISAGPIRTLSAKGVGGFNTILKEIEERAPLKRNVDQVEVGKTAAYLLSDLSSGVTGENIHVDSG

> <PDB ID(s) of Target Chain>
3GNS,3GNT,3GR6,4ALI,4ALJ,4ALK,4ALL,4ALM,4ALN,4BNF,4BNG,4BNH,4BNI,4BNJ,4BNK,4BNL,4BNM,4BNN,4CUZ,4CV0,4CV1,4D41,4D42,4D43,4D44,4D45,4FS3,4NZ9,6TBB,6TBC,6YUR

> <UniProt (SwissProt) Recommended Name of Target Chain>
Enoyl-[acyl-carrier-protein] reductase [NADPH] FabI

> <UniProt (SwissProt) Entry Name of Target Chain>
FABI_STAAR

> <UniProt (SwissProt) Primary ID of Target Chain>
Q6GI75

> <UniProt (SwissProt) Secondary ID(s) of Target Chain>


> <UniProt (SwissProt) Alternative ID(s) of Target Chain>


> <UniProt (TrEMBL) Submitted Name of Target Chain>


> <UniProt (TrEMBL) Entry Name of Target Chain>


> <UniProt (TrEMBL) Primary ID of Target Chain>


> <UniProt (TrEMBL) Secondary ID(s) of Target Chain>


> <UniProt (TrEMBL) Alternative ID(s) of Target Chain>


$$$$
BindingDB_50280916_3D

Vconf v2.1
 52 56  0  0  0  0  0  0  0  0999 V2000
   13.4390  -17.7270    0.6260 C   0  0  0  0  0  0  0  0  0  0  0
   13.3980  -18.6990   -0.3910 C   0  0  0  0  0  0  0  0  0  0  0
   14.1750  -19.8040   -0.3120 N   0  0  0  0  0  0  0  0  0  0  0
   14.3050  -17.9780    1.7130 C   0  0  0  0  0  0  0  0  0  0  0
   12.6180  -16.5780    0.5070 C   0  0  0  0  0  0  0  0  0  0  0
   12.5480  -15.5300    1.4330 C   0  0  0  0  0  0  0  0  0  0  0
   11.7170  -14.4130    1.2620 C   0  0  0  0  0  0  0  0  0  0  0
   10.9060  -14.2350    0.1370 N   0  0  0  0  0  0  0  0  0  0  0
   11.6880  -13.5370    2.1540 O   0  0  0  0  0  0  0  0  0  0  0
   11.2180  -13.9350   -1.2580 C   0  0  0  0  0  0  0  0  0  0  0
    9.7000  -13.9670   -1.5020 C   0  0  0  0  0  0  0  0  0  0  0
    9.4550  -14.1500    0.0050 C   0  0  0  0  0  0  0  0  0  0  0
    9.0950  -12.8120   -2.1770 C   0  0  0  0  0  0  0  0  0  0  0
    9.3360  -12.4350   -3.5000 C   0  0  0  0  0  0  0  0  0  0  0
    8.2150  -11.9570   -1.5950 O   0  0  0  0  0  0  0  0  0  0  0
    7.8880  -11.0350   -2.5280 C   0  0  0  0  0  0  0  0  0  0  0
    8.5630  -11.3020   -3.7180 C   0  0  0  0  0  0  0  0  0  0  0
    8.3950  -10.4850   -4.8490 C   0  0  0  0  0  0  0  0  0  0  0
    7.5210   -9.3840   -4.7540 C   0  0  0  0  0  0  0  0  0  0  0
    6.8360   -9.1130   -3.5500 C   0  0  0  0  0  0  0  0  0  0  0
    7.0160   -9.9410   -2.4230 C   0  0  0  0  0  0  0  0  0  0  0
   10.2300  -13.1150   -4.4460 C   0  0  0  0  0  0  0  0  0  0  0
   15.0240  -20.0660    0.7120 C   0  0  0  0  0  0  0  0  0  0  0
   15.0920  -19.1430    1.7850 C   0  0  0  0  0  0  0  0  0  0  0
   15.8360  -19.2810    2.9080 N   0  0  0  0  0  0  0  0  0  0  0
   15.7060  -21.2280    0.5500 N   0  0  0  0  0  0  0  0  0  0  0
   16.3540  -20.5030    3.3990 C   0  0  0  0  0  0  0  0  0  0  0
   16.7060  -21.7530    1.2900 C   0  0  0  0  0  0  0  0  0  0  0
   17.3710  -21.0790    2.4080 C   0  0  0  0  0  0  0  0  0  0  0
   17.1110  -22.8890    0.9620 O   0  0  0  0  0  0  0  0  0  0  0
   12.7880  -18.5810   -1.2020 H   0  0  0  0  0  0  0  0  0  0  0
   14.3620  -17.3100    2.4820 H   0  0  0  0  0  0  0  0  0  0  0
   12.0240  -16.5100   -0.3220 H   0  0  0  0  0  0  0  0  0  0  0
   13.1140  -15.5670    2.2810 H   0  0  0  0  0  0  0  0  0  0  0
   11.7920  -14.6900   -1.7960 H   0  0  0  0  0  0  0  0  0  0  0
   11.7110  -12.9720   -1.4010 H   0  0  0  0  0  0  0  0  0  0  0
    9.3900  -14.8450   -2.0700 H   0  0  0  0  0  0  0  0  0  0  0
    8.9110  -15.0520    0.2870 H   0  0  0  0  0  0  0  0  0  0  0
    9.0150  -13.3060    0.5380 H   0  0  0  0  0  0  0  0  0  0  0
    8.8900  -10.6820   -5.7190 H   0  0  0  0  0  0  0  0  0  0  0
    7.3820   -8.7770   -5.5630 H   0  0  0  0  0  0  0  0  0  0  0
    6.2060   -8.3120   -3.4940 H   0  0  0  0  0  0  0  0  0  0  0
    6.5230   -9.7490   -1.5500 H   0  0  0  0  0  0  0  0  0  0  0
   10.2240  -12.6130   -5.4140 H   0  0  0  0  0  0  0  0  0  0  0
   11.2470  -13.1110   -4.0530 H   0  0  0  0  0  0  0  0  0  0  0
    9.9010  -14.1460   -4.5800 H   0  0  0  0  0  0  0  0  0  0  0
   15.9740  -18.4900    3.4530 H   0  0  0  0  0  0  0  0  0  0  0
   15.4410  -21.7600   -0.2160 H   0  0  0  0  0  0  0  0  0  0  0
   16.8670  -20.2980    4.3390 H   0  0  0  0  0  0  0  0  0  0  0
   15.5480  -21.2150    3.5930 H   0  0  0  0  0  0  0  0  0  0  0
   18.0080  -21.7940    2.9300 H   0  0  0  0  0  0  0  0  0  0  0
   17.9970  -20.2740    2.0210 H   0  0  0  0  0  0  0  0  0  0  0
  1  2  2  0  0  0  0
  1  4  1  0  0  0  0
  1  5  1  0  0  0  0
  2  3  1  0  0  0  0
  2 31  1  0  0  0  0
  3 23  2  0  0  0  0
  4 24  2  0  0  0  0
  4 32  1  0  0  0  0
  5  6  2  0  0  0  0
  5 33  1  0  0  0  0
  6  7  1  0  0  0  0
  6 34  1  0  0  0  0
  7  8  1  0  0  0  0
  7  9  2  0  0  0  0
  8 10  1  0  0  0  0
  8 12  1  0  0  0  0
 10 11  1  0  0  0  0
 10 35  1  0  0  0  0
 10 36  1  0  0  0  0
 11 12  1  0  0  0  0
 11 13  1  0  0  0  0
 11 37  1  0  0  0  0
 12 38  1  0  0  0  0
 12 39  1  0  0  0  0
 13 14  2  0  0  0  0
 13 15  1  0  0  0  0
 14 17  1  0  0  0  0
 14 22  1  0  0  0  0
 15 16  1  0  0  0  0
 16 17  2  0  0  0  0
 16 21  1  0  0  0  0
 17 18  1  0  0  0  0
 18 19  2  0  0  0  0
 18 40  1  0  0  0  0
 19 20  1  0  0  0  0
 19 41  1  0  0  0  0
 20 21  2  0  0  0  0
 20 42  1  0  0  0  0
 21 43  1  0  0  0  0
 22 44  1  0  0  0  0
 22 45  1  0  0  0  0
 22 46  1  0  0  0  0
 23 24  1  0  0  0  0
 23 26  1  0  0  0  0
 24 25  1  0  0  0  0
 25 27  1  0  0  0  0
 25 47  1  0  0  0  0
 26 28  1  0  0  0  0
 26 48  1  0  0  0  0
 27 29  1  0  0  0  0
 27 49  1  0  0  0  0
 27 50  1  0  0  0  0
 28 29  1  0  0  0  0
 28 30  2  0  0  0  0
 29 51  1  0  0  0  0
 29 52  1  0  0  0  0
M  END
> <From>
www.bindingDB.org

> <BindingDB Reactant_set_id>
50280916

> <Ligand InChI>
InChI=1S/C23H22N4O3/c1-14-17-4-2-3-5-19(17)30-22(14)16-12-27(13-16)21(29)7-6-15-10-18-23(25-11-15)26-20(28)8-9-24-18/h2-7,10-11,16,24H,8-9,12-13H2,1H3,(H,25,26,28)/b7-6+

> <Ligand InChI Key>
JGFSOQHMDLGCAF-VOTSOKGWSA-N

> <BindingDB MonomerID>
50052243

> <BindingDB Ligand Name>
CHEMBL3322730

> <Target Name>
Enoyl-[acyl-carrier-protein] reductase [NADPH] FabI [9-251]

> <Target Source Organism According to Curator or DataSource>
Staphylococcus aureus

> <Ki (nM)>


> <IC50 (nM)>
 316

> <Kd (nM)>


> <EC50 (nM)>


> <kon (M-1-s-1)>


> <koff (s-1)>


> <pH>


> <Temp C>


> <Curation/DataSource>
ChEMBL

> <Article DOI>
10.1016/j.ejmech.2014.07.036

> <BindingDB Entry DOI>
10.7270/Q2CJ8G45

> <PMID>
25036796

> <PubChem AID>


> <Patent Number>


> <Authors>
Takhi, M; Sreenivas, K; Reddy, CK; Munikumar, M; Praveena, K; Sudheer, P; Rao, BN; Ramakanth, G; Sivaranjani, J; Mulik, S; Reddy, YR; Narasimha Rao, K; Pallavi, R; Lakshminarasimhan, A; Panigrahi, SK; Antony, T; Abdullah, I; Lee, YK; Ramachandra, M; Yusof, R; Rahman, NA; Subramanya, H

> <Institution>
Aurigene Discovery Technologies Ltd

> <Link to Ligand in BindingDB>
http://www.bindingdb.org/bind/chemsearch/marvin/MolStructure.jsp?monomerid=50052243

> <Link to Ligand-Target Pair in BindingDB>
http://www.bindingdb.org/jsp/dbsearch/PrimarySearch_ki.jsp?energyterm=kJ/mole&tag=pol&polymerid=50004708&target=Enoyl-%5Bacyl-carrier-protein%5D+reductase+%5BNADPH%5D+FabI+%5B9-251%5D&column=ki&startPg=0&Increment=50&submit=Search

> <Link to Ligand-Target Pair in BindingDB>
http://www.bindingdb.org/jsp/dbsearch/PrimarySearch_ki.jsp?energyterm=kJ/mole&tag=r21&monomerid=50052243&enzyme=Enoyl-%5Bacyl-carrier-protein%5D+reductase+%5BNADPH%5D+FabI+%5B9-251%5D&column=ki&startPg=0&Increment=50&submit=Search

> <Ligand HET ID in PDB>


> <PDB ID(s) for Ligand-Target Complex>


> <PubChem CID of Ligand>
118710295

> <PubChem SID of Ligand>
103949139

> <ChEBI ID of Ligand>


> <ChEMBL ID of Ligand>
CHEMBL3322730

> <DrugBank ID of Ligand>


> <IUPHAR_GRAC ID of Ligand>


> <KEGG ID of Ligand>


> <ZINC ID of Ligand>
ZINC13757029

> <Number of Protein Chains in Target (bigger than 1 implies a multichain complex)>
1

> <BindingDB Target Chain Sequence>
YVIMGIANKRSIAFGVAKVLDQLGAKLVFTYRKERSRKELEKLLEQLNQPEAHLYQIDVQSDEEVINGFEQIGKDVGNIDGVYHSIAFANMEDLRGRFSETSREGFLLAQDISSYSLTIVAHEAKKLMPEGGSIVATTYLGGEFAVQNYNVMGVAKASLEANVKYLALDLGPDNIRVNAISAGPIRTLSAKGVGGFNTILKEIEERAPLKRNVDQVEVGKTAAYLLSDLSSGVTGENIHVDSG

> <PDB ID(s) of Target Chain>
3GNS,3GNT,3GR6,4ALI,4ALJ,4ALK,4ALL,4ALM,4ALN,4BNF,4BNG,4BNH,4BNI,4BNJ,4BNK,4BNL,4BNM,4BNN,4CUZ,4CV0,4CV1,4D41,4D42,4D43,4D44,4D45,4FS3,4NZ9,6TBB,6TBC,6YUR

> <UniProt (SwissProt) Recommended Name of Target Chain>
Enoyl-[acyl-carrier-protein] reductase [NADPH] FabI

> <UniProt (SwissProt) Entry Name of Target Chain>
FABI_STAAR

> <UniProt (SwissProt) Primary ID of Target Chain>
Q6GI75

> <UniProt (SwissProt) Secondary ID(s) of Target Chain>


> <UniProt (SwissProt) Alternative ID(s) of Target Chain>


> <UniProt (TrEMBL) Submitted Name of Target Chain>


> <UniProt (TrEMBL) Entry Name of Target Chain>


> <UniProt (TrEMBL) Primary ID of Target Chain>


> <UniProt (TrEMBL) Secondary ID(s) of Target Chain>


> <UniProt (TrEMBL) Alternative ID(s) of Target Chain>


$$$$
BindingDB_50280894_3D

Vconf v2.1
 46 50  0  0  0  0  0  0  0  0999 V2000
   15.8670   -5.5750    1.8330 C   0  0  0  0  0  0  0  0  0  0  0
   16.0050   -4.2980    1.4340 N   0  0  0  0  0  0  0  0  0  0  0
   14.8990   -6.5980    0.8170 S   0  0  0  0  0  0  0  0  0  0  0
   14.6910   -5.2070   -0.1880 C   0  0  0  0  0  0  0  0  0  0  0
   15.3450   -4.0720    0.2950 C   0  0  0  0  0  0  0  0  0  0  0
   15.2770   -2.8530   -0.3980 C   0  0  0  0  0  0  0  0  0  0  0
   14.5400   -2.7900   -1.5960 C   0  0  0  0  0  0  0  0  0  0  0
   13.8830   -3.9370   -2.0880 C   0  0  0  0  0  0  0  0  0  0  0
   13.9560   -5.1550   -1.3840 C   0  0  0  0  0  0  0  0  0  0  0
   17.6050   -0.6250    3.9210 C   0  0  0  0  0  0  0  0  0  0  0
   16.6390   -0.0720    3.0540 C   0  0  0  0  0  0  0  0  0  0  0
   16.5260    1.2720    2.9130 N   0  0  0  0  0  0  0  0  0  0  0
   18.4340    0.2810    4.6220 C   0  0  0  0  0  0  0  0  0  0  0
   18.3000    1.6720    4.4570 C   0  0  0  0  0  0  0  0  0  0  0
   17.3140    2.1520    3.5760 C   0  0  0  0  0  0  0  0  0  0  0
   17.1250    3.4710    3.3680 N   0  0  0  0  0  0  0  0  0  0  0
   17.8570    4.4300    3.9710 C   0  0  0  0  0  0  0  0  0  0  0
   18.9380    4.1140    4.9190 C   0  0  0  0  0  0  0  0  0  0  0
   19.1760    2.6060    5.1900 C   0  0  0  0  0  0  0  0  0  0  0
   17.6050    5.6260    3.7080 O   0  0  0  0  0  0  0  0  0  0  0
   17.6920   -2.0350    4.0400 C   0  0  0  0  0  0  0  0  0  0  0
   18.5910   -2.7240    4.8630 C   0  0  0  0  0  0  0  0  0  0  0
   18.6400   -4.1240    4.9410 C   0  0  0  0  0  0  0  0  0  0  0
   17.7780   -4.9500    4.2160 N   0  0  0  0  0  0  0  0  0  0  0
   19.5040   -4.6620    5.6670 O   0  0  0  0  0  0  0  0  0  0  0
   18.0410   -5.8700    3.1150 C   0  0  0  0  0  0  0  0  0  0  0
   16.5180   -6.0730    3.0510 C   0  0  0  0  0  0  0  0  0  0  0
   16.3430   -5.2130    4.3140 C   0  0  0  0  0  0  0  0  0  0  0
   15.7560   -2.0260   -0.0390 H   0  0  0  0  0  0  0  0  0  0  0
   14.4830   -1.9110   -2.1120 H   0  0  0  0  0  0  0  0  0  0  0
   13.3520   -3.8840   -2.9580 H   0  0  0  0  0  0  0  0  0  0  0
   13.4830   -5.9870   -1.7360 H   0  0  0  0  0  0  0  0  0  0  0
   16.0120   -0.6770    2.5200 H   0  0  0  0  0  0  0  0  0  0  0
   19.1490   -0.0610    5.2630 H   0  0  0  0  0  0  0  0  0  0  0
   16.4290    3.7450    2.7510 H   0  0  0  0  0  0  0  0  0  0  0
   19.8610    4.5460    4.5310 H   0  0  0  0  0  0  0  0  0  0  0
   18.7100    4.6030    5.8660 H   0  0  0  0  0  0  0  0  0  0  0
   19.0470    2.4310    6.2590 H   0  0  0  0  0  0  0  0  0  0  0
   20.2120    2.3770    4.9330 H   0  0  0  0  0  0  0  0  0  0  0
   17.0490   -2.5940    3.4750 H   0  0  0  0  0  0  0  0  0  0  0
   19.2580   -2.2020    5.4310 H   0  0  0  0  0  0  0  0  0  0  0
   18.6140   -6.7520    3.4020 H   0  0  0  0  0  0  0  0  0  0  0
   18.5230   -5.4190    2.2450 H   0  0  0  0  0  0  0  0  0  0  0
   16.2110   -7.1120    3.1740 H   0  0  0  0  0  0  0  0  0  0  0
   16.0570   -5.7670    5.2090 H   0  0  0  0  0  0  0  0  0  0  0
   15.6920   -4.3410    4.2380 H   0  0  0  0  0  0  0  0  0  0  0
  1  2  2  0  0  0  0
  1  3  1  0  0  0  0
  1 27  1  0  0  0  0
  2  5  1  0  0  0  0
  3  4  1  0  0  0  0
  4  5  2  0  0  0  0
  4  9  1  0  0  0  0
  5  6  1  0  0  0  0
  6  7  2  0  0  0  0
  6 29  1  0  0  0  0
  7  8  1  0  0  0  0
  7 30  1  0  0  0  0
  8  9  2  0  0  0  0
  8 31  1  0  0  0  0
  9 32  1  0  0  0  0
 10 11  2  0  0  0  0
 10 13  1  0  0  0  0
 10 21  1  0  0  0  0
 11 12  1  0  0  0  0
 11 33  1  0  0  0  0
 12 15  2  0  0  0  0
 13 14  2  0  0  0  0
 13 34  1  0  0  0  0
 14 15  1  0  0  0  0
 14 19  1  0  0  0  0
 15 16  1  0  0  0  0
 16 17  1  0  0  0  0
 16 35  1  0  0  0  0
 17 18  1  0  0  0  0
 17 20  2  0  0  0  0
 18 19  1  0  0  0  0
 18 36  1  0  0  0  0
 18 37  1  0  0  0  0
 19 38  1  0  0  0  0
 19 39  1  0  0  0  0
 21 22  2  0  0  0  0
 21 40  1  0  0  0  0
 22 23  1  0  0  0  0
 22 41  1  0  0  0  0
 23 24  1  0  0  0  0
 23 25  2  0  0  0  0
 24 26  1  0  0  0  0
 24 28  1  0  0  0  0
 26 27  1  0  0  0  0
 26 42  1  0  0  0  0
 26 43  1  0  0  0  0
 27 28  1  0  0  0  0
 27 44  1  0  0  0  0
 28 45  1  0  0  0  0
 28 46  1  0  0  0  0
M  END
> <From>
www.bindingDB.org

> <BindingDB Reactant_set_id>
50280894

> <Ligand InChI>
InChI=1S/C21H18N4O2S/c26-18-7-6-14-9-13(10-22-20(14)24-18)5-8-19(27)25-11-15(12-25)21-23-16-3-1-2-4-17(16)28-21/h1-5,8-10,15H,6-7,11-12H2,(H,22,24,26)/b8-5+

> <Ligand InChI Key>
CFMULNDIVXMMNX-VMPITWQZSA-N

> <BindingDB MonomerID>
50052230

> <BindingDB Ligand Name>
CHEMBL3322716

> <Target Name>
Enoyl-[acyl-carrier-protein] reductase [NADPH] FabI [9-251]

> <Target Source Organism According to Curator or DataSource>
Staphylococcus aureus

> <Ki (nM)>


> <IC50 (nM)>
 373

> <Kd (nM)>


> <EC50 (nM)>


> <kon (M-1-s-1)>


> <koff (s-1)>


> <pH>


> <Temp C>


> <Curation/DataSource>
ChEMBL

> <Article DOI>
10.1016/j.ejmech.2014.07.036

> <BindingDB Entry DOI>
10.7270/Q2CJ8G45

> <PMID>
25036796

> <PubChem AID>


> <Patent Number>


> <Authors>
Takhi, M; Sreenivas, K; Reddy, CK; Munikumar, M; Praveena, K; Sudheer, P; Rao, BN; Ramakanth, G; Sivaranjani, J; Mulik, S; Reddy, YR; Narasimha Rao, K; Pallavi, R; Lakshminarasimhan, A; Panigrahi, SK; Antony, T; Abdullah, I; Lee, YK; Ramachandra, M; Yusof, R; Rahman, NA; Subramanya, H

> <Institution>
Aurigene Discovery Technologies Ltd

> <Link to Ligand in BindingDB>
http://www.bindingdb.org/bind/chemsearch/marvin/MolStructure.jsp?monomerid=50052230

> <Link to Ligand-Target Pair in BindingDB>
http://www.bindingdb.org/jsp/dbsearch/PrimarySearch_ki.jsp?energyterm=kJ/mole&tag=pol&polymerid=50004708&target=Enoyl-%5Bacyl-carrier-protein%5D+reductase+%5BNADPH%5D+FabI+%5B9-251%5D&column=ki&startPg=0&Increment=50&submit=Search

> <Link to Ligand-Target Pair in BindingDB>
http://www.bindingdb.org/jsp/dbsearch/PrimarySearch_ki.jsp?energyterm=kJ/mole&tag=r21&monomerid=50052230&enzyme=Enoyl-%5Bacyl-carrier-protein%5D+reductase+%5BNADPH%5D+FabI+%5B9-251%5D&column=ki&startPg=0&Increment=50&submit=Search

> <Ligand HET ID in PDB>


> <PDB ID(s) for Ligand-Target Complex>


> <PubChem CID of Ligand>
118710282

> <PubChem SID of Ligand>
103949126

> <ChEBI ID of Ligand>


> <ChEMBL ID of Ligand>
CHEMBL3322716

> <DrugBank ID of Ligand>


> <IUPHAR_GRAC ID of Ligand>


> <KEGG ID of Ligand>


> <ZINC ID of Ligand>
ZINC13757027

> <Number of Protein Chains in Target (bigger than 1 implies a multichain complex)>
1

> <BindingDB Target Chain Sequence>
YVIMGIANKRSIAFGVAKVLDQLGAKLVFTYRKERSRKELEKLLEQLNQPEAHLYQIDVQSDEEVINGFEQIGKDVGNIDGVYHSIAFANMEDLRGRFSETSREGFLLAQDISSYSLTIVAHEAKKLMPEGGSIVATTYLGGEFAVQNYNVMGVAKASLEANVKYLALDLGPDNIRVNAISAGPIRTLSAKGVGGFNTILKEIEERAPLKRNVDQVEVGKTAAYLLSDLSSGVTGENIHVDSG

> <PDB ID(s) of Target Chain>
3GNS,3GNT,3GR6,4ALI,4ALJ,4ALK,4ALL,4ALM,4ALN,4BNF,4BNG,4BNH,4BNI,4BNJ,4BNK,4BNL,4BNM,4BNN,4CUZ,4CV0,4CV1,4D41,4D42,4D43,4D44,4D45,4FS3,4NZ9,6TBB,6TBC,6YUR

> <UniProt (SwissProt) Recommended Name of Target Chain>
Enoyl-[acyl-carrier-protein] reductase [NADPH] FabI

> <UniProt (SwissProt) Entry Name of Target Chain>
FABI_STAAR

> <UniProt (SwissProt) Primary ID of Target Chain>
Q6GI75

> <UniProt (SwissProt) Secondary ID(s) of Target Chain>


> <UniProt (SwissProt) Alternative ID(s) of Target Chain>


> <UniProt (TrEMBL) Submitted Name of Target Chain>


> <UniProt (TrEMBL) Entry Name of Target Chain>


> <UniProt (TrEMBL) Primary ID of Target Chain>


> <UniProt (TrEMBL) Secondary ID(s) of Target Chain>


> <UniProt (TrEMBL) Alternative ID(s) of Target Chain>


$$$$
00097001.cdx

Vconf v2.1
 48 51  0  0  0  0  0  0  0  0999 V2000
    3.8390   -6.8990    0.5830 C   0  0  0  0  0  0  0  0  0  0  0
    3.8330   -8.3010    0.4660 C   0  0  0  0  0  0  0  0  0  0  0
    4.9570   -9.0340    0.6040 N   0  0  0  0  0  0  0  0  0  0  0
    6.1670   -8.4960    0.8600 C   0  0  0  0  0  0  0  0  0  0  0
    6.3660   -7.0450    1.0120 C   0  0  0  0  0  0  0  0  0  0  0
    5.0930   -6.1720    0.8640 C   0  0  0  0  0  0  0  0  0  0  0
    2.6240   -6.2060    0.4270 C   0  0  0  0  0  0  0  0  0  0  0
    1.4180   -6.8910    0.1570 C   0  0  0  0  0  0  0  0  0  0  0
    1.4880   -8.2960    0.0520 C   0  0  0  0  0  0  0  0  0  0  0
    2.6700   -8.9420    0.2070 N   0  0  0  0  0  0  0  0  0  0  0
    0.1620   -6.2550   -0.0130 C   0  0  0  0  0  0  0  0  0  0  0
   -0.0660   -4.8760    0.0630 C   0  0  0  0  0  0  0  0  0  0  0
   -1.3310   -4.2980   -0.1180 C   0  0  0  0  0  0  0  0  0  0  0
   -1.4570   -3.0600    0.0040 O   0  0  0  0  0  0  0  0  0  0  0
   -2.4710   -5.0500   -0.4180 N   0  0  0  0  0  0  0  0  0  0  0
    7.1490   -9.2610    0.9690 O   0  0  0  0  0  0  0  0  0  0  0
   -3.6900   -5.2900    0.3470 C   0  0  0  0  0  0  0  0  0  0  0
   -4.1540   -6.1500   -0.8370 C   0  0  0  0  0  0  0  0  0  0  0
   -2.8810   -5.7830   -1.6130 C   0  0  0  0  0  0  0  0  0  0  0
   -4.2940   -7.5300   -0.5060 O   0  0  0  0  0  0  0  0  0  0  0
   -4.6120   -8.4230   -1.5710 C   0  0  0  0  0  0  0  0  0  0  0
   -4.6340   -9.8050   -1.0650 C   0  0  0  0  0  0  0  0  0  0  0
   -5.8130  -10.5760   -1.1130 C   0  0  0  0  0  0  0  0  0  0  0
   -5.8200  -11.8960   -0.6300 C   0  0  0  0  0  0  0  0  0  0  0
   -4.6470  -12.4550   -0.0970 C   0  0  0  0  0  0  0  0  0  0  0
   -3.4670  -11.6940   -0.0450 C   0  0  0  0  0  0  0  0  0  0  0
   -3.4610  -10.3740   -0.5270 C   0  0  0  0  0  0  0  0  0  0  0
    4.8930   -9.9970    0.5140 H   0  0  0  0  0  0  0  0  0  0  0
    7.0930   -6.7250    0.2640 H   0  0  0  0  0  0  0  0  0  0  0
    6.7950   -6.8660    1.9990 H   0  0  0  0  0  0  0  0  0  0  0
    5.2640   -5.4600    0.0560 H   0  0  0  0  0  0  0  0  0  0  0
    4.9610   -5.6070    1.7890 H   0  0  0  0  0  0  0  0  0  0  0
    2.6340   -5.1900    0.5130 H   0  0  0  0  0  0  0  0  0  0  0
    0.6490   -8.8460   -0.1430 H   0  0  0  0  0  0  0  0  0  0  0
   -0.6450   -6.8540   -0.2030 H   0  0  0  0  0  0  0  0  0  0  0
    0.7100   -4.2460    0.2670 H   0  0  0  0  0  0  0  0  0  0  0
   -3.5480   -5.8210    1.2890 H   0  0  0  0  0  0  0  0  0  0  0
   -4.2910   -4.4010    0.5380 H   0  0  0  0  0  0  0  0  0  0  0
   -5.0860   -5.8080   -1.2900 H   0  0  0  0  0  0  0  0  0  0  0
   -3.0440   -5.1610   -2.4930 H   0  0  0  0  0  0  0  0  0  0  0
   -2.2420   -6.6200   -1.8990 H   0  0  0  0  0  0  0  0  0  0  0
   -5.5820   -8.1450   -1.9880 H   0  0  0  0  0  0  0  0  0  0  0
   -3.8600   -8.3430   -2.3580 H   0  0  0  0  0  0  0  0  0  0  0
   -6.6700  -10.1780   -1.4990 H   0  0  0  0  0  0  0  0  0  0  0
   -6.6770  -12.4480   -0.6670 H   0  0  0  0  0  0  0  0  0  0  0
   -4.6510  -13.4140    0.2530 H   0  0  0  0  0  0  0  0  0  0  0
   -2.6140  -12.0990    0.3430 H   0  0  0  0  0  0  0  0  0  0  0
   -2.6010   -9.8250   -0.4860 H   0  0  0  0  0  0  0  0  0  0  0
  1  2  2  0  0  0  0
  1  6  1  0  0  0  0
  1  7  1  0  0  0  0
  2  3  1  0  0  0  0
  2 10  1  0  0  0  0
  3  4  1  0  0  0  0
  3 28  1  0  0  0  0
  4  5  1  0  0  0  0
  4 16  2  0  0  0  0
  5  6  1  0  0  0  0
  5 29  1  0  0  0  0
  5 30  1  0  0  0  0
  6 31  1  0  0  0  0
  6 32  1  0  0  0  0
  7  8  2  0  0  0  0
  7 33  1  0  0  0  0
  8  9  1  0  0  0  0
  8 11  1  0  0  0  0
  9 10  2  0  0  0  0
  9 34  1  0  0  0  0
 11 12  2  0  0  0  0
 11 35  1  0  0  0  0
 12 13  1  0  0  0  0
 12 36  1  0  0  0  0
 13 14  2  0  0  0  0
 13 15  1  0  0  0  0
 15 17  1  0  0  0  0
 15 19  1  0  0  0  0
 17 18  1  0  0  0  0
 17 37  1  0  0  0  0
 17 38  1  0  0  0  0
 18 19  1  0  0  0  0
 18 20  1  0  0  0  0
 18 39  1  0  0  0  0
 19 40  1  0  0  0  0
 19 41  1  0  0  0  0
 20 21  1  0  0  0  0
 21 22  1  0  0  0  0
 21 42  1  0  0  0  0
 21 43  1  0  0  0  0
 22 23  2  0  0  0  0
 22 27  1  0  0  0  0
 23 24  1  0  0  0  0
 23 44  1  0  0  0  0
 24 25  2  0  0  0  0
 24 45  1  0  0  0  0
 25 26  1  0  0  0  0
 25 46  1  0  0  0  0
 26 27  2  0  0  0  0
 26 47  1  0  0  0  0
 27 48  1  0  0  0  0
M  END
> <From>
www.bindingDB.org

> <BindingDB Reactant_set_id>
50280879

> <Ligand InChI>
InChI=1S/C21H21N3O3/c25-19-8-7-17-10-16(11-22-21(17)23-19)6-9-20(26)24-12-18(13-24)27-14-15-4-2-1-3-5-15/h1-6,9-11,18H,7-8,12-14H2,(H,22,23,25)/b9-6+

> <Ligand InChI Key>
HNGPQMJMLWSXHM-RMKNXTFCSA-N

> <BindingDB MonomerID>
133673

> <BindingDB Ligand Name>
US8846711, 17::US9051321, 17

> <Target Name>
Enoyl-[acyl-carrier-protein] reductase [NADPH] FabI [9-251]

> <Target Source Organism According to Curator or DataSource>
Staphylococcus aureus

> <Ki (nM)>


> <IC50 (nM)>
 376

> <Kd (nM)>


> <EC50 (nM)>


> <kon (M-1-s-1)>


> <koff (s-1)>


> <pH>


> <Temp C>


> <Curation/DataSource>
ChEMBL

> <Article DOI>
10.1016/j.ejmech.2014.07.036

> <BindingDB Entry DOI>
10.7270/Q2CJ8G45

> <PMID>
25036796

> <PubChem AID>


> <Patent Number>


> <Authors>
Takhi, M; Sreenivas, K; Reddy, CK; Munikumar, M; Praveena, K; Sudheer, P; Rao, BN; Ramakanth, G; Sivaranjani, J; Mulik, S; Reddy, YR; Narasimha Rao, K; Pallavi, R; Lakshminarasimhan, A; Panigrahi, SK; Antony, T; Abdullah, I; Lee, YK; Ramachandra, M; Yusof, R; Rahman, NA; Subramanya, H

> <Institution>
Aurigene Discovery Technologies Ltd

> <Link to Ligand in BindingDB>
http://www.bindingdb.org/bind/chemsearch/marvin/MolStructure.jsp?monomerid=133673

> <Link to Ligand-Target Pair in BindingDB>
http://www.bindingdb.org/jsp/dbsearch/PrimarySearch_ki.jsp?energyterm=kJ/mole&tag=pol&polymerid=50004708&target=Enoyl-%5Bacyl-carrier-protein%5D+reductase+%5BNADPH%5D+FabI+%5B9-251%5D&column=ki&startPg=0&Increment=50&submit=Search

> <Link to Ligand-Target Pair in BindingDB>
http://www.bindingdb.org/jsp/dbsearch/PrimarySearch_ki.jsp?energyterm=kJ/mole&tag=r21&monomerid=133673&enzyme=Enoyl-%5Bacyl-carrier-protein%5D+reductase+%5BNADPH%5D+FabI+%5B9-251%5D&column=ki&startPg=0&Increment=50&submit=Search

> <Ligand HET ID in PDB>


> <PDB ID(s) for Ligand-Target Complex>


> <PubChem CID of Ligand>
52950489

> <PubChem SID of Ligand>
242079808

> <ChEBI ID of Ligand>


> <ChEMBL ID of Ligand>


> <DrugBank ID of Ligand>


> <IUPHAR_GRAC ID of Ligand>


> <KEGG ID of Ligand>


> <ZINC ID of Ligand>


> <Number of Protein Chains in Target (bigger than 1 implies a multichain complex)>
1

> <BindingDB Target Chain Sequence>
YVIMGIANKRSIAFGVAKVLDQLGAKLVFTYRKERSRKELEKLLEQLNQPEAHLYQIDVQSDEEVINGFEQIGKDVGNIDGVYHSIAFANMEDLRGRFSETSREGFLLAQDISSYSLTIVAHEAKKLMPEGGSIVATTYLGGEFAVQNYNVMGVAKASLEANVKYLALDLGPDNIRVNAISAGPIRTLSAKGVGGFNTILKEIEERAPLKRNVDQVEVGKTAAYLLSDLSSGVTGENIHVDSG

> <PDB ID(s) of Target Chain>
3GNS,3GNT,3GR6,4ALI,4ALJ,4ALK,4ALL,4ALM,4ALN,4BNF,4BNG,4BNH,4BNI,4BNJ,4BNK,4BNL,4BNM,4BNN,4CUZ,4CV0,4CV1,4D41,4D42,4D43,4D44,4D45,4FS3,4NZ9,6TBB,6TBC,6YUR

> <UniProt (SwissProt) Recommended Name of Target Chain>
Enoyl-[acyl-carrier-protein] reductase [NADPH] FabI

> <UniProt (SwissProt) Entry Name of Target Chain>
FABI_STAAR

> <UniProt (SwissProt) Primary ID of Target Chain>
Q6GI75

> <UniProt (SwissProt) Secondary ID(s) of Target Chain>


> <UniProt (SwissProt) Alternative ID(s) of Target Chain>


> <UniProt (TrEMBL) Submitted Name of Target Chain>


> <UniProt (TrEMBL) Entry Name of Target Chain>


> <UniProt (TrEMBL) Primary ID of Target Chain>


> <UniProt (TrEMBL) Secondary ID(s) of Target Chain>


> <UniProt (TrEMBL) Alternative ID(s) of Target Chain>


$$$$
BindingDB_50280885_3D

Vconf v2.1
 48 51  0  0  0  0  0  0  0  0999 V2000
    8.0380   -9.0910   -0.1580 C   0  0  0  0  0  0  0  0  0  0  0
    9.0520   -9.4990    0.7380 C   0  0  0  0  0  0  0  0  0  0  0
    9.6410  -10.7130    0.6000 N   0  0  0  0  0  0  0  0  0  0  0
    7.6790   -9.9970   -1.1780 C   0  0  0  0  0  0  0  0  0  0  0
    8.3070  -11.2490   -1.3020 C   0  0  0  0  0  0  0  0  0  0  0
    9.3100  -11.5910   -0.3760 C   0  0  0  0  0  0  0  0  0  0  0
    9.9590  -12.7720   -0.4310 N   0  0  0  0  0  0  0  0  0  0  0
    9.7050  -13.7150   -1.3600 C   0  0  0  0  0  0  0  0  0  0  0
    8.6810  -13.5350   -2.4040 C   0  0  0  0  0  0  0  0  0  0  0
    7.9300  -12.1790   -2.3840 C   0  0  0  0  0  0  0  0  0  0  0
   10.3600  -14.7790   -1.3250 O   0  0  0  0  0  0  0  0  0  0  0
    7.3750   -7.8410   -0.0930 C   0  0  0  0  0  0  0  0  0  0  0
    7.6170   -6.8370    0.8520 C   0  0  0  0  0  0  0  0  0  0  0
    6.9240   -5.6180    0.8620 C   0  0  0  0  0  0  0  0  0  0  0
    5.9080   -5.3210   -0.0530 N   0  0  0  0  0  0  0  0  0  0  0
    7.2240   -4.7530    1.7130 O   0  0  0  0  0  0  0  0  0  0  0
    4.5640   -5.8650   -0.2300 C   0  0  0  0  0  0  0  0  0  0  0
    4.4550   -4.9270   -1.4410 C   0  0  0  0  0  0  0  0  0  0  0
    5.8310   -4.3230   -1.1150 C   0  0  0  0  0  0  0  0  0  0  0
    4.3340   -5.6340   -2.7990 C   0  0  0  0  0  0  0  0  0  0  0
    5.4590   -6.4980   -2.9900 O   0  0  0  0  0  0  0  0  0  0  0
    5.6350   -7.2480   -4.1200 C   0  0  0  0  0  0  0  0  0  0  0
    6.9030   -7.8260   -4.3390 C   0  0  0  0  0  0  0  0  0  0  0
    7.1360   -8.6200   -5.4760 C   0  0  0  0  0  0  0  0  0  0  0
    6.1060   -8.8400   -6.4050 C   0  0  0  0  0  0  0  0  0  0  0
    4.8420   -8.2640   -6.1980 C   0  0  0  0  0  0  0  0  0  0  0
    4.6080   -7.4720   -5.0610 C   0  0  0  0  0  0  0  0  0  0  0
    7.8780   -7.6250   -3.4960 F   0  0  0  0  0  0  0  0  0  0  0
    9.3590   -8.8930    1.4980 H   0  0  0  0  0  0  0  0  0  0  0
    6.9500   -9.7470   -1.8500 H   0  0  0  0  0  0  0  0  0  0  0
   10.6430  -12.9520    0.2310 H   0  0  0  0  0  0  0  0  0  0  0
    7.9490  -14.3370   -2.2980 H   0  0  0  0  0  0  0  0  0  0  0
    9.1660  -13.6460   -3.3750 H   0  0  0  0  0  0  0  0  0  0  0
    6.8610  -12.3850   -2.3020 H   0  0  0  0  0  0  0  0  0  0  0
    8.1040  -11.6800   -3.3390 H   0  0  0  0  0  0  0  0  0  0  0
    6.6630   -7.6530   -0.8030 H   0  0  0  0  0  0  0  0  0  0  0
    8.3320   -6.9770    1.5660 H   0  0  0  0  0  0  0  0  0  0  0
    4.5010   -6.9320   -0.4450 H   0  0  0  0  0  0  0  0  0  0  0
    3.8770   -5.6420    0.5880 H   0  0  0  0  0  0  0  0  0  0  0
    3.6280   -4.2190   -1.3750 H   0  0  0  0  0  0  0  0  0  0  0
    5.8160   -3.2910   -0.7640 H   0  0  0  0  0  0  0  0  0  0  0
    6.5920   -4.4120   -1.8910 H   0  0  0  0  0  0  0  0  0  0  0
    3.4070   -6.2090   -2.8100 H   0  0  0  0  0  0  0  0  0  0  0
    4.3060   -4.8820   -3.5890 H   0  0  0  0  0  0  0  0  0  0  0
    8.0550   -9.0380   -5.6320 H   0  0  0  0  0  0  0  0  0  0  0
    6.2760   -9.4150   -7.2310 H   0  0  0  0  0  0  0  0  0  0  0
    4.0920   -8.4220   -6.8730 H   0  0  0  0  0  0  0  0  0  0  0
    3.6840   -7.0640   -4.9220 H   0  0  0  0  0  0  0  0  0  0  0
  1  2  2  0  0  0  0
  1  4  1  0  0  0  0
  1 12  1  0  0  0  0
  2  3  1  0  0  0  0
  2 29  1  0  0  0  0
  3  6  2  0  0  0  0
  4  5  2  0  0  0  0
  4 30  1  0  0  0  0
  5  6  1  0  0  0  0
  5 10  1  0  0  0  0
  6  7  1  0  0  0  0
  7  8  1  0  0  0  0
  7 31  1  0  0  0  0
  8  9  1  0  0  0  0
  8 11  2  0  0  0  0
  9 10  1  0  0  0  0
  9 32  1  0  0  0  0
  9 33  1  0  0  0  0
 10 34  1  0  0  0  0
 10 35  1  0  0  0  0
 12 13  2  0  0  0  0
 12 36  1  0  0  0  0
 13 14  1  0  0  0  0
 13 37  1  0  0  0  0
 14 15  1  0  0  0  0
 14 16  2  0  0  0  0
 15 17  1  0  0  0  0
 15 19  1  0  0  0  0
 17 18  1  0  0  0  0
 17 38  1  0  0  0  0
 17 39  1  0  0  0  0
 18 19  1  0  0  0  0
 18 20  1  0  0  0  0
 18 40  1  0  0  0  0
 19 41  1  0  0  0  0
 19 42  1  0  0  0  0
 20 21  1  0  0  0  0
 20 43  1  0  0  0  0
 20 44  1  0  0  0  0
 21 22  1  0  0  0  0
 22 23  2  0  0  0  0
 22 27  1  0  0  0  0
 23 24  1  0  0  0  0
 23 28  1  0  0  0  0
 24 25  2  0  0  0  0
 24 45  1  0  0  0  0
 25 26  1  0  0  0  0
 25 46  1  0  0  0  0
 26 27  2  0  0  0  0
 26 47  1  0  0  0  0
 27 48  1  0  0  0  0
M  END
> <From>
www.bindingDB.org

> <BindingDB Reactant_set_id>
50280885

> <Ligand InChI>
InChI=1S/C21H20FN3O3/c22-17-3-1-2-4-18(17)28-13-15-11-25(12-15)20(27)8-5-14-9-16-6-7-19(26)24-21(16)23-10-14/h1-5,8-10,15H,6-7,11-13H2,(H,23,24,26)/b8-5+

> <Ligand InChI Key>
YHNNTXILFVKHDE-VMPITWQZSA-N

> <BindingDB MonomerID>
50052224

> <BindingDB Ligand Name>
CHEMBL3322707

> <Target Name>
Enoyl-[acyl-carrier-protein] reductase [NADPH] FabI [9-251]

> <Target Source Organism According to Curator or DataSource>
Staphylococcus aureus

> <Ki (nM)>


> <IC50 (nM)>
 378

> <Kd (nM)>


> <EC50 (nM)>


> <kon (M-1-s-1)>


> <koff (s-1)>


> <pH>


> <Temp C>


> <Curation/DataSource>
ChEMBL

> <Article DOI>
10.1016/j.ejmech.2014.07.036

> <BindingDB Entry DOI>
10.7270/Q2CJ8G45

> <PMID>
25036796

> <PubChem AID>


> <Patent Number>


> <Authors>
Takhi, M; Sreenivas, K; Reddy, CK; Munikumar, M; Praveena, K; Sudheer, P; Rao, BN; Ramakanth, G; Sivaranjani, J; Mulik, S; Reddy, YR; Narasimha Rao, K; Pallavi, R; Lakshminarasimhan, A; Panigrahi, SK; Antony, T; Abdullah, I; Lee, YK; Ramachandra, M; Yusof, R; Rahman, NA; Subramanya, H

> <Institution>
Aurigene Discovery Technologies Ltd

> <Link to Ligand in BindingDB>
http://www.bindingdb.org/bind/chemsearch/marvin/MolStructure.jsp?monomerid=50052224

> <Link to Ligand-Target Pair in BindingDB>
http://www.bindingdb.org/jsp/dbsearch/PrimarySearch_ki.jsp?energyterm=kJ/mole&tag=pol&polymerid=50004708&target=Enoyl-%5Bacyl-carrier-protein%5D+reductase+%5BNADPH%5D+FabI+%5B9-251%5D&column=ki&startPg=0&Increment=50&submit=Search

> <Link to Ligand-Target Pair in BindingDB>
http://www.bindingdb.org/jsp/dbsearch/PrimarySearch_ki.jsp?energyterm=kJ/mole&tag=r21&monomerid=50052224&enzyme=Enoyl-%5Bacyl-carrier-protein%5D+reductase+%5BNADPH%5D+FabI+%5B9-251%5D&column=ki&startPg=0&Increment=50&submit=Search

> <Ligand HET ID in PDB>


> <PDB ID(s) for Ligand-Target Complex>


> <PubChem CID of Ligand>
118710273

> <PubChem SID of Ligand>
103949120

> <ChEBI ID of Ligand>


> <ChEMBL ID of Ligand>
CHEMBL3322707

> <DrugBank ID of Ligand>


> <IUPHAR_GRAC ID of Ligand>


> <KEGG ID of Ligand>


> <ZINC ID of Ligand>
ZINC13757020

> <Number of Protein Chains in Target (bigger than 1 implies a multichain complex)>
1

> <BindingDB Target Chain Sequence>
YVIMGIANKRSIAFGVAKVLDQLGAKLVFTYRKERSRKELEKLLEQLNQPEAHLYQIDVQSDEEVINGFEQIGKDVGNIDGVYHSIAFANMEDLRGRFSETSREGFLLAQDISSYSLTIVAHEAKKLMPEGGSIVATTYLGGEFAVQNYNVMGVAKASLEANVKYLALDLGPDNIRVNAISAGPIRTLSAKGVGGFNTILKEIEERAPLKRNVDQVEVGKTAAYLLSDLSSGVTGENIHVDSG

> <PDB ID(s) of Target Chain>
3GNS,3GNT,3GR6,4ALI,4ALJ,4ALK,4ALL,4ALM,4ALN,4BNF,4BNG,4BNH,4BNI,4BNJ,4BNK,4BNL,4BNM,4BNN,4CUZ,4CV0,4CV1,4D41,4D42,4D43,4D44,4D45,4FS3,4NZ9,6TBB,6TBC,6YUR

> <UniProt (SwissProt) Recommended Name of Target Chain>
Enoyl-[acyl-carrier-protein] reductase [NADPH] FabI

> <UniProt (SwissProt) Entry Name of Target Chain>
FABI_STAAR

> <UniProt (SwissProt) Primary ID of Target Chain>
Q6GI75

> <UniProt (SwissProt) Secondary ID(s) of Target Chain>


> <UniProt (SwissProt) Alternative ID(s) of Target Chain>


> <UniProt (TrEMBL) Submitted Name of Target Chain>


> <UniProt (TrEMBL) Entry Name of Target Chain>


> <UniProt (TrEMBL) Primary ID of Target Chain>


> <UniProt (TrEMBL) Secondary ID(s) of Target Chain>


> <UniProt (TrEMBL) Alternative ID(s) of Target Chain>


$$$$
BindingDB_50280913_3D

Vconf v2.1
 52 56  0  0  0  0  0  0  0  0999 V2000
   19.9830   -5.7110    0.7680 C   0  0  0  0  0  0  0  0  0  0  0
   20.3350   -6.4010   -0.4080 C   0  0  0  0  0  0  0  0  0  0  0
   21.3760   -7.2660   -0.4070 N   0  0  0  0  0  0  0  0  0  0  0
   20.7740   -5.9570    1.9120 C   0  0  0  0  0  0  0  0  0  0  0
   18.8810   -4.8200    0.7340 C   0  0  0  0  0  0  0  0  0  0  0
   18.4170   -4.0620    1.8160 C   0  0  0  0  0  0  0  0  0  0  0
   17.3140   -3.2000    1.7310 C   0  0  0  0  0  0  0  0  0  0  0
   16.5530   -3.0540    0.5680 N   0  0  0  0  0  0  0  0  0  0  0
   16.9920   -2.5250    2.7330 O   0  0  0  0  0  0  0  0  0  0  0
   15.6330   -3.9560   -0.1220 C   0  0  0  0  0  0  0  0  0  0  0
   15.3720   -2.7930   -1.0950 C   0  0  0  0  0  0  0  0  0  0  0
   16.3580   -1.9080   -0.3140 C   0  0  0  0  0  0  0  0  0  0  0
   15.6540   -3.0060   -2.5200 C   0  0  0  0  0  0  0  0  0  0  0
   15.6090   -2.0180   -3.5060 C   0  0  0  0  0  0  0  0  0  0  0
   16.0000   -4.2010   -3.0650 O   0  0  0  0  0  0  0  0  0  0  0
   16.1760   -3.9930   -4.3890 C   0  0  0  0  0  0  0  0  0  0  0
   15.9420   -2.6540   -4.6950 C   0  0  0  0  0  0  0  0  0  0  0
   16.0590   -2.1770   -6.0120 C   0  0  0  0  0  0  0  0  0  0  0
   16.4200   -3.0890   -7.0240 C   0  0  0  0  0  0  0  0  0  0  0
   16.6580   -4.4460   -6.7140 C   0  0  0  0  0  0  0  0  0  0  0
   16.5370   -4.9100   -5.3890 C   0  0  0  0  0  0  0  0  0  0  0
   15.2760   -0.6030   -3.3010 C   0  0  0  0  0  0  0  0  0  0  0
   22.1410   -7.5330    0.6790 C   0  0  0  0  0  0  0  0  0  0  0
   21.8620   -6.8520    1.8850 C   0  0  0  0  0  0  0  0  0  0  0
   22.6920   -7.0130    3.0880 C   0  0  0  0  0  0  0  0  0  0  0
   23.1120   -8.4510    0.4480 N   0  0  0  0  0  0  0  0  0  0  0
   22.8300   -8.4330    3.4210 N   0  0  0  0  0  0  0  0  0  0  0
   23.9700   -9.0730    1.2920 C   0  0  0  0  0  0  0  0  0  0  0
   23.9990   -9.0330    2.7640 C   0  0  0  0  0  0  0  0  0  0  0
   24.8200   -9.8060    0.7420 O   0  0  0  0  0  0  0  0  0  0  0
   19.8090   -6.2620   -1.2730 H   0  0  0  0  0  0  0  0  0  0  0
   20.5720   -5.4700    2.7840 H   0  0  0  0  0  0  0  0  0  0  0
   18.3860   -4.7200   -0.1550 H   0  0  0  0  0  0  0  0  0  0  0
   18.8970   -4.1190    2.7150 H   0  0  0  0  0  0  0  0  0  0  0
   14.7700   -4.2600    0.4710 H   0  0  0  0  0  0  0  0  0  0  0
   16.0890   -4.8570   -0.5340 H   0  0  0  0  0  0  0  0  0  0  0
   14.3440   -2.4330   -1.0370 H   0  0  0  0  0  0  0  0  0  0  0
   15.9150   -1.0340    0.1640 H   0  0  0  0  0  0  0  0  0  0  0
   17.2590   -1.5880   -0.8400 H   0  0  0  0  0  0  0  0  0  0  0
   15.8880   -1.1960   -6.2340 H   0  0  0  0  0  0  0  0  0  0  0
   16.5110   -2.7660   -7.9870 H   0  0  0  0  0  0  0  0  0  0  0
   16.9190   -5.0960   -7.4560 H   0  0  0  0  0  0  0  0  0  0  0
   16.7080   -5.8890   -5.1600 H   0  0  0  0  0  0  0  0  0  0  0
   15.3070   -0.0560   -4.2440 H   0  0  0  0  0  0  0  0  0  0  0
   14.2730   -0.5230   -2.8790 H   0  0  0  0  0  0  0  0  0  0  0
   15.9920   -0.1570   -2.6100 H   0  0  0  0  0  0  0  0  0  0  0
   23.6700   -6.5570    2.9210 H   0  0  0  0  0  0  0  0  0  0  0
   22.2310   -6.5140    3.9420 H   0  0  0  0  0  0  0  0  0  0  0
   23.2050   -8.7140   -0.4800 H   0  0  0  0  0  0  0  0  0  0  0
   21.9950   -8.9200    3.0880 H   0  0  0  0  0  0  0  0  0  0  0
   24.0630  -10.0620    3.1190 H   0  0  0  0  0  0  0  0  0  0  0
   24.9030   -8.5140    3.0830 H   0  0  0  0  0  0  0  0  0  0  0
  1  2  2  0  0  0  0
  1  4  1  0  0  0  0
  1  5  1  0  0  0  0
  2  3  1  0  0  0  0
  2 31  1  0  0  0  0
  3 23  2  0  0  0  0
  4 24  2  0  0  0  0
  4 32  1  0  0  0  0
  5  6  2  0  0  0  0
  5 33  1  0  0  0  0
  6  7  1  0  0  0  0
  6 34  1  0  0  0  0
  7  8  1  0  0  0  0
  7  9  2  0  0  0  0
  8 10  1  0  0  0  0
  8 12  1  0  0  0  0
 10 11  1  0  0  0  0
 10 35  1  0  0  0  0
 10 36  1  0  0  0  0
 11 12  1  0  0  0  0
 11 13  1  0  0  0  0
 11 37  1  0  0  0  0
 12 38  1  0  0  0  0
 12 39  1  0  0  0  0
 13 14  2  0  0  0  0
 13 15  1  0  0  0  0
 14 17  1  0  0  0  0
 14 22  1  0  0  0  0
 15 16  1  0  0  0  0
 16 17  2  0  0  0  0
 16 21  1  0  0  0  0
 17 18  1  0  0  0  0
 18 19  2  0  0  0  0
 18 40  1  0  0  0  0
 19 20  1  0  0  0  0
 19 41  1  0  0  0  0
 20 21  2  0  0  0  0
 20 42  1  0  0  0  0
 21 43  1  0  0  0  0
 22 44  1  0  0  0  0
 22 45  1  0  0  0  0
 22 46  1  0  0  0  0
 23 24  1  0  0  0  0
 23 26  1  0  0  0  0
 24 25  1  0  0  0  0
 25 27  1  0  0  0  0
 25 47  1  0  0  0  0
 25 48  1  0  0  0  0
 26 28  1  0  0  0  0
 26 49  1  0  0  0  0
 27 29  1  0  0  0  0
 27 50  1  0  0  0  0
 28 29  1  0  0  0  0
 28 30  2  0  0  0  0
 29 51  1  0  0  0  0
 29 52  1  0  0  0  0
M  END
> <From>
www.bindingDB.org

> <BindingDB Reactant_set_id>
50280913

> <Ligand InChI>
InChI=1S/C23H22N4O3/c1-14-18-4-2-3-5-19(18)30-22(14)17-12-27(13-17)21(29)7-6-15-8-16-10-24-11-20(28)26-23(16)25-9-15/h2-9,17,24H,10-13H2,1H3,(H,25,26,28)/b7-6+

> <Ligand InChI Key>
ZIGUFTMNFXVVTK-VOTSOKGWSA-N

> <BindingDB MonomerID>
50052240

> <BindingDB Ligand Name>
CHEMBL3322727

> <Target Name>
Enoyl-[acyl-carrier-protein] reductase [NADPH] FabI [9-251]

> <Target Source Organism According to Curator or DataSource>
Staphylococcus aureus

> <Ki (nM)>


> <IC50 (nM)>
 384

> <Kd (nM)>


> <EC50 (nM)>


> <kon (M-1-s-1)>


> <koff (s-1)>


> <pH>


> <Temp C>


> <Curation/DataSource>
ChEMBL

> <Article DOI>
10.1016/j.ejmech.2014.07.036

> <BindingDB Entry DOI>
10.7270/Q2CJ8G45

> <PMID>
25036796

> <PubChem AID>


> <Patent Number>


> <Authors>
Takhi, M; Sreenivas, K; Reddy, CK; Munikumar, M; Praveena, K; Sudheer, P; Rao, BN; Ramakanth, G; Sivaranjani, J; Mulik, S; Reddy, YR; Narasimha Rao, K; Pallavi, R; Lakshminarasimhan, A; Panigrahi, SK; Antony, T; Abdullah, I; Lee, YK; Ramachandra, M; Yusof, R; Rahman, NA; Subramanya, H

> <Institution>
Aurigene Discovery Technologies Ltd

> <Link to Ligand in BindingDB>
http://www.bindingdb.org/bind/chemsearch/marvin/MolStructure.jsp?monomerid=50052240

> <Link to Ligand-Target Pair in BindingDB>
http://www.bindingdb.org/jsp/dbsearch/PrimarySearch_ki.jsp?energyterm=kJ/mole&tag=pol&polymerid=50004708&target=Enoyl-%5Bacyl-carrier-protein%5D+reductase+%5BNADPH%5D+FabI+%5B9-251%5D&column=ki&startPg=0&Increment=50&submit=Search

> <Link to Ligand-Target Pair in BindingDB>
http://www.bindingdb.org/jsp/dbsearch/PrimarySearch_ki.jsp?energyterm=kJ/mole&tag=r21&monomerid=50052240&enzyme=Enoyl-%5Bacyl-carrier-protein%5D+reductase+%5BNADPH%5D+FabI+%5B9-251%5D&column=ki&startPg=0&Increment=50&submit=Search

> <Ligand HET ID in PDB>


> <PDB ID(s) for Ligand-Target Complex>


> <PubChem CID of Ligand>
118710292

> <PubChem SID of Ligand>
103949136

> <ChEBI ID of Ligand>


> <ChEMBL ID of Ligand>
CHEMBL3322727

> <DrugBank ID of Ligand>


> <IUPHAR_GRAC ID of Ligand>


> <KEGG ID of Ligand>


> <ZINC ID of Ligand>
ZINC13756982

> <Number of Protein Chains in Target (bigger than 1 implies a multichain complex)>
1

> <BindingDB Target Chain Sequence>
YVIMGIANKRSIAFGVAKVLDQLGAKLVFTYRKERSRKELEKLLEQLNQPEAHLYQIDVQSDEEVINGFEQIGKDVGNIDGVYHSIAFANMEDLRGRFSETSREGFLLAQDISSYSLTIVAHEAKKLMPEGGSIVATTYLGGEFAVQNYNVMGVAKASLEANVKYLALDLGPDNIRVNAISAGPIRTLSAKGVGGFNTILKEIEERAPLKRNVDQVEVGKTAAYLLSDLSSGVTGENIHVDSG

> <PDB ID(s) of Target Chain>
3GNS,3GNT,3GR6,4ALI,4ALJ,4ALK,4ALL,4ALM,4ALN,4BNF,4BNG,4BNH,4BNI,4BNJ,4BNK,4BNL,4BNM,4BNN,4CUZ,4CV0,4CV1,4D41,4D42,4D43,4D44,4D45,4FS3,4NZ9,6TBB,6TBC,6YUR

> <UniProt (SwissProt) Recommended Name of Target Chain>
Enoyl-[acyl-carrier-protein] reductase [NADPH] FabI

> <UniProt (SwissProt) Entry Name of Target Chain>
FABI_STAAR

> <UniProt (SwissProt) Primary ID of Target Chain>
Q6GI75

> <UniProt (SwissProt) Secondary ID(s) of Target Chain>


> <UniProt (SwissProt) Alternative ID(s) of Target Chain>


> <UniProt (TrEMBL) Submitted Name of Target Chain>


> <UniProt (TrEMBL) Entry Name of Target Chain>


> <UniProt (TrEMBL) Primary ID of Target Chain>


> <UniProt (TrEMBL) Secondary ID(s) of Target Chain>


> <UniProt (TrEMBL) Alternative ID(s) of Target Chain>


$$$$
16

Vconf v2.0 Academic SN VC001-00000579
 38 40  0  0  0  0  0  0  0  0999 V2000
   -3.0700    3.1490    0.6230 C   0  0  0  0  0  0  0  0  0  0  0
   -4.2770    2.4300    0.6180 C   0  0  0  0  0  0  0  0  0  0  0
   -4.2740    1.0190    0.5550 C   0  0  0  0  0  0  0  0  0  0  0
   -3.0340    0.3460    0.5200 C   0  0  0  0  0  0  0  0  0  0  0
   -1.8280    1.0650    0.5260 C   0  0  0  0  0  0  0  0  0  0  0
   -1.8360    2.4750    0.5620 C   0  0  0  0  0  0  0  0  0  0  0
   -3.1010    4.4990    0.6800 O   0  0  0  0  0  0  0  0  0  0  0
   -0.6950    3.2330    0.5830 O   0  0  0  0  0  0  0  0  0  0  0
    0.4800    2.8870   -0.0330 C   0  0  0  0  0  0  0  0  0  0  0
    1.7040    3.0500    0.6530 C   0  0  0  0  0  0  0  0  0  0  0
    0.4950    2.4090   -1.3600 C   0  0  0  0  0  0  0  0  0  0  0
    1.7050    2.0700   -1.9880 C   0  0  0  0  0  0  0  0  0  0  0
    2.9230    2.2180   -1.2970 C   0  0  0  0  0  0  0  0  0  0  0
    2.9180    2.7120    0.0230 C   0  0  0  0  0  0  0  0  0  0  0
    1.7420    3.6420    2.2400 Cl  0  0  0  0  0  0  0  0  0  0  0
   -5.4920    0.2970    0.5570 C   0  0  0  0  0  0  0  0  0  0  0
   -5.8820   -0.5420   -0.5220 C   0  0  0  0  0  0  0  0  0  0  0
   -7.1070   -1.2380   -0.4510 C   0  0  0  0  0  0  0  0  0  0  0
   -7.9420   -1.1110    0.6690 C   0  0  0  0  0  0  0  0  0  0  0
   -7.5650   -0.2770    1.7310 C   0  0  0  0  0  0  0  0  0  0  0
   -6.3500    0.4240    1.6730 C   0  0  0  0  0  0  0  0  0  0  0
   -5.0610   -0.6830   -1.7430 C   0  0  0  0  0  0  0  0  0  0  0
    4.0450    1.9040   -1.8750 C   0  0  0  0  0  0  0  0  0  0  0
    5.0350    1.6270   -2.3860 N   0  0  0  0  0  0  0  0  0  0  0
   -5.1600    2.9430    0.6550 H   0  0  0  0  0  0  0  0  0  0  0
   -3.0020   -0.6750    0.4980 H   0  0  0  0  0  0  0  0  0  0  0
   -0.9430    0.5580    0.5090 H   0  0  0  0  0  0  0  0  0  0  0
   -2.2130    4.9170    0.6840 H   0  0  0  0  0  0  0  0  0  0  0
   -0.3810    2.3050   -1.8730 H   0  0  0  0  0  0  0  0  0  0  0
    1.6860    1.7200   -2.9480 H   0  0  0  0  0  0  0  0  0  0  0
    3.8000    2.8250    0.5300 H   0  0  0  0  0  0  0  0  0  0  0
   -7.3980   -1.8410   -1.2220 H   0  0  0  0  0  0  0  0  0  0  0
   -8.8250   -1.6210    0.7090 H   0  0  0  0  0  0  0  0  0  0  0
   -8.1720   -0.1800    2.5450 H   0  0  0  0  0  0  0  0  0  0  0
   -6.0910    1.0240    2.4590 H   0  0  0  0  0  0  0  0  0  0  0
   -5.5640   -1.2940   -2.4940 H   0  0  0  0  0  0  0  0  0  0  0
   -4.8720    0.3020   -2.1740 H   0  0  0  0  0  0  0  0  0  0  0
   -4.1100   -1.1580   -1.5020 H   0  0  0  0  0  0  0  0  0  0  0
  1  2  2  0  0  0  0
  1  6  1  0  0  0  0
  1  7  1  0  0  0  0
  2  3  1  0  0  0  0
  2 25  1  0  0  0  0
  3  4  2  0  0  0  0
  3 16  1  0  0  0  0
  4  5  1  0  0  0  0
  4 26  1  0  0  0  0
  5  6  2  0  0  0  0
  5 27  1  0  0  0  0
  6  8  1  0  0  0  0
  7 28  1  0  0  0  0
  8  9  1  0  0  0  0
  9 10  2  0  0  0  0
  9 11  1  0  0  0  0
 10 14  1  0  0  0  0
 10 15  1  0  0  0  0
 11 12  2  0  0  0  0
 11 29  1  0  0  0  0
 12 13  1  0  0  0  0
 12 30  1  0  0  0  0
 13 14  2  0  0  0  0
 13 23  1  0  0  0  0
 14 31  1  0  0  0  0
 16 17  1  0  0  0  0
 16 21  2  0  0  0  0
 17 18  2  0  0  0  0
 17 22  1  0  0  0  0
 18 19  1  0  0  0  0
 18 32  1  0  0  0  0
 19 20  2  0  0  0  0
 19 33  1  0  0  0  0
 20 21  1  0  0  0  0
 20 34  1  0  0  0  0
 21 35  1  0  0  0  0
 22 36  1  0  0  0  0
 22 37  1  0  0  0  0
 22 38  1  0  0  0  0
 23 24  3  0  0  0  0
M  END
> <From>
www.bindingDB.org

> <BindingDB Reactant_set_id>
46068

> <Ligand InChI>
InChI=1S/C20H14ClNO2/c1-13-4-2-3-5-16(13)15-7-9-20(18(23)11-15)24-19-8-6-14(12-22)10-17(19)21/h2-11,23H,1H3

> <Ligand InChI Key>
UELZHMTYGHATAK-UHFFFAOYSA-N

> <BindingDB MonomerID>
25415

> <BindingDB Ligand Name>
3-chloro-4-[2-hydroxy-4-(2-methylphenyl)phenoxy]benzonitrile::Triclosan derivative, 16

> <Target Name>
Enoyl-ACP reductase

> <Target Source Organism According to Curator or DataSource>
Plasmodium falciparum

> <Ki (nM)>


> <IC50 (nM)>
 410

> <Kd (nM)>


> <EC50 (nM)>


> <kon (M-1-s-1)>


> <koff (s-1)>


> <pH>
7.9

> <Temp C>
25.00

> <Curation/DataSource>
Curated from the literature by BindingDB

> <Article DOI>
10.1074/jbc.M701813200

> <BindingDB Entry DOI>
10.7270/Q22V2DFD

> <PMID>
17567585

> <PubChem AID>
aid1798551

> <Patent Number>


> <Authors>
Freundlich, JS; Wang, F; Tsai, HC; Kuo, M; Shieh, HM; Anderson, JW; Nkrumah, LJ; Valderramos, JC; Yu, M; Kumar, TR; Valderramos, SG; Jacobs, WR; Schiehser, GA; Jacobus, DP; Fidock, DA; Sacchettini, JC

> <Institution>
Jacobus Pharmaceutical Company

> <Link to Ligand in BindingDB>
http://www.bindingdb.org/bind/chemsearch/marvin/MolStructure.jsp?monomerid=25415

> <Link to Ligand-Target Pair in BindingDB>
http://www.bindingdb.org/jsp/dbsearch/PrimarySearch_ki.jsp?energyterm=kJ/mole&tag=pol&polymerid=2820&target=Enoyl-ACP+reductase&column=ki&startPg=0&Increment=50&submit=Search

> <Link to Ligand-Target Pair in BindingDB>
http://www.bindingdb.org/jsp/dbsearch/PrimarySearch_ki.jsp?energyterm=kJ/mole&tag=r21&monomerid=25415&enzyme=Enoyl-ACP+reductase&column=ki&startPg=0&Increment=50&submit=Search

> <Ligand HET ID in PDB>


> <PDB ID(s) for Ligand-Target Complex>


> <PubChem CID of Ligand>
25023965

> <PubChem SID of Ligand>
56374554

> <ChEBI ID of Ligand>


> <ChEMBL ID of Ligand>


> <DrugBank ID of Ligand>


> <IUPHAR_GRAC ID of Ligand>


> <KEGG ID of Ligand>


> <ZINC ID of Ligand>
ZINC29061289

> <Number of Protein Chains in Target (bigger than 1 implies a multichain complex)>
1

> <BindingDB Target Chain Sequence>
MNKISQRLLFLFLHFYTTVCFIQNNTQKTFHNVLQNEQIRGKEKAFYRKEKRENIFIGNK
MKHVHNMNNTHNNNHYMEKEEQDASNINKIKEENKNEDICFIAGIGDTNGYGWGIAKELS
KRNVKIIFGIWPPVYNIFMKNYKNGKFDNDMIIDKDKKMNILDMLPFDASFDTANDIDEE
TKNNKRYNMLQNYTIEDVANLIHQKYGKINMLVHSLANAKEVQKDLLNTSRKGYLDALSK
SSYSLISLCKYFVNIMKPQSSIISLTYHASQKVVPGYGGGMSSAKAALESDTRVLAYHLG
RNYNIRINTISAGPLKSRAATAINKLNNTYENNTNQNKNRNRHDVHNIMNNSGEKEEKKI
SASQNYTFIDYAIEYSEKYAPLRQKLLSTDIGSVASFLLSRESRAITGQTIYVDNGLNIM
FLPDDIYRNENE

> <PDB ID(s) of Target Chain>
1NHG,1NHW,1NNU,1UH5,1V35,2FOI,2NQ8,3LSY,3LT0,3LT1,3LT2,3LT4

> <UniProt (SwissProt) Recommended Name of Target Chain>


> <UniProt (SwissProt) Entry Name of Target Chain>


> <UniProt (SwissProt) Primary ID of Target Chain>


> <UniProt (SwissProt) Secondary ID(s) of Target Chain>


> <UniProt (SwissProt) Alternative ID(s) of Target Chain>


> <UniProt (TrEMBL) Submitted Name of Target Chain>
Enoyl-ACP reductase

> <UniProt (TrEMBL) Entry Name of Target Chain>
Q9BJJ9_PLAFA

> <UniProt (TrEMBL) Primary ID of Target Chain>
Q9BJJ9

> <UniProt (TrEMBL) Secondary ID(s) of Target Chain>


> <UniProt (TrEMBL) Alternative ID(s) of Target Chain>


$$$$
BindingDB_50280887_3D

Vconf v2.1
 48 51  0  0  0  0  0  0  0  0999 V2000
   20.1850   -9.2460   -0.1310 C   0  0  0  0  0  0  0  0  0  0  0
   21.3060   -9.2400    0.7290 C   0  0  0  0  0  0  0  0  0  0  0
   22.3290  -10.1080    0.5310 N   0  0  0  0  0  0  0  0  0  0  0
   20.1870  -10.1890   -1.1810 C   0  0  0  0  0  0  0  0  0  0  0
   21.2620  -11.0750   -1.3700 C   0  0  0  0  0  0  0  0  0  0  0
   22.3470  -11.0130   -0.4770 C   0  0  0  0  0  0  0  0  0  0  0
   23.4130  -11.8320   -0.5900 N   0  0  0  0  0  0  0  0  0  0  0
   23.5320  -12.7660   -1.5560 C   0  0  0  0  0  0  0  0  0  0  0
   22.4970  -12.9690   -2.5840 C   0  0  0  0  0  0  0  0  0  0  0
   21.2550  -12.0460   -2.4820 C   0  0  0  0  0  0  0  0  0  0  0
   24.5590  -13.4780   -1.5750 O   0  0  0  0  0  0  0  0  0  0  0
   19.0790   -8.3700   -0.0010 C   0  0  0  0  0  0  0  0  0  0  0
   18.9290   -7.3900    0.9880 C   0  0  0  0  0  0  0  0  0  0  0
   17.8130   -6.5430    1.0640 C   0  0  0  0  0  0  0  0  0  0  0
   16.7450   -6.6170    0.1660 N   0  0  0  0  0  0  0  0  0  0  0
   17.7720   -5.6720    1.9610 O   0  0  0  0  0  0  0  0  0  0  0
   15.7090   -7.6240   -0.0500 C   0  0  0  0  0  0  0  0  0  0  0
   15.2360   -6.7400   -1.2130 C   0  0  0  0  0  0  0  0  0  0  0
   16.2610   -5.6620   -0.8260 C   0  0  0  0  0  0  0  0  0  0  0
   15.4130   -7.3550   -2.6090 C   0  0  0  0  0  0  0  0  0  0  0
   16.7830   -7.7260   -2.7930 O   0  0  0  0  0  0  0  0  0  0  0
   17.2430   -8.3180   -3.9320 C   0  0  0  0  0  0  0  0  0  0  0
   18.6320   -8.5210   -4.0280 C   0  0  0  0  0  0  0  0  0  0  0
   19.1880   -9.1460   -5.1580 C   0  0  0  0  0  0  0  0  0  0  0
   18.3520   -9.5650   -6.2080 C   0  0  0  0  0  0  0  0  0  0  0
   16.9650   -9.3590   -6.1260 C   0  0  0  0  0  0  0  0  0  0  0
   16.4110   -8.7390   -4.9920 C   0  0  0  0  0  0  0  0  0  0  0
   20.4750   -9.3380   -5.2290 F   0  0  0  0  0  0  0  0  0  0  0
   21.3690   -8.5870    1.5090 H   0  0  0  0  0  0  0  0  0  0  0
   19.3960  -10.2370   -1.8250 H   0  0  0  0  0  0  0  0  0  0  0
   24.1300  -11.7460    0.0560 H   0  0  0  0  0  0  0  0  0  0  0
   22.1630  -14.0050   -2.5240 H   0  0  0  0  0  0  0  0  0  0  0
   22.9590  -12.8180   -3.5610 H   0  0  0  0  0  0  0  0  0  0  0
   20.3710  -12.6780   -2.3790 H   0  0  0  0  0  0  0  0  0  0  0
   21.1660  -11.4930   -3.4190 H   0  0  0  0  0  0  0  0  0  0  0
   18.3300   -8.4560   -0.6920 H   0  0  0  0  0  0  0  0  0  0  0
   19.6590   -7.2670    1.6900 H   0  0  0  0  0  0  0  0  0  0  0
   16.0560   -8.6230   -0.3170 H   0  0  0  0  0  0  0  0  0  0  0
   14.9980   -7.7200    0.7710 H   0  0  0  0  0  0  0  0  0  0  0
   14.1960   -6.4220   -1.1330 H   0  0  0  0  0  0  0  0  0  0  0
   15.8400   -4.7490   -0.4040 H   0  0  0  0  0  0  0  0  0  0  0
   16.9820   -5.3840   -1.5950 H   0  0  0  0  0  0  0  0  0  0  0
   14.7690   -8.2320   -2.6890 H   0  0  0  0  0  0  0  0  0  0  0
   15.1230   -6.6190   -3.3610 H   0  0  0  0  0  0  0  0  0  0  0
   19.2390   -8.2130   -3.2670 H   0  0  0  0  0  0  0  0  0  0  0
   18.7500  -10.0190   -7.0320 H   0  0  0  0  0  0  0  0  0  0  0
   16.3580   -9.6620   -6.8880 H   0  0  0  0  0  0  0  0  0  0  0
   15.4020   -8.6000   -4.9410 H   0  0  0  0  0  0  0  0  0  0  0
  1  2  2  0  0  0  0
  1  4  1  0  0  0  0
  1 12  1  0  0  0  0
  2  3  1  0  0  0  0
  2 29  1  0  0  0  0
  3  6  2  0  0  0  0
  4  5  2  0  0  0  0
  4 30  1  0  0  0  0
  5  6  1  0  0  0  0
  5 10  1  0  0  0  0
  6  7  1  0  0  0  0
  7  8  1  0  0  0  0
  7 31  1  0  0  0  0
  8  9  1  0  0  0  0
  8 11  2  0  0  0  0
  9 10  1  0  0  0  0
  9 32  1  0  0  0  0
  9 33  1  0  0  0  0
 10 34  1  0  0  0  0
 10 35  1  0  0  0  0
 12 13  2  0  0  0  0
 12 36  1  0  0  0  0
 13 14  1  0  0  0  0
 13 37  1  0  0  0  0
 14 15  1  0  0  0  0
 14 16  2  0  0  0  0
 15 17  1  0  0  0  0
 15 19  1  0  0  0  0
 17 18  1  0  0  0  0
 17 38  1  0  0  0  0
 17 39  1  0  0  0  0
 18 19  1  0  0  0  0
 18 20  1  0  0  0  0
 18 40  1  0  0  0  0
 19 41  1  0  0  0  0
 19 42  1  0  0  0  0
 20 21  1  0  0  0  0
 20 43  1  0  0  0  0
 20 44  1  0  0  0  0
 21 22  1  0  0  0  0
 22 23  2  0  0  0  0
 22 27  1  0  0  0  0
 23 24  1  0  0  0  0
 23 45  1  0  0  0  0
 24 25  2  0  0  0  0
 24 28  1  0  0  0  0
 25 26  1  0  0  0  0
 25 46  1  0  0  0  0
 26 27  2  0  0  0  0
 26 47  1  0  0  0  0
 27 48  1  0  0  0  0
M  END
> <From>
www.bindingDB.org

> <BindingDB Reactant_set_id>
50280887

> <Ligand InChI>
InChI=1S/C21H20FN3O3/c22-17-2-1-3-18(9-17)28-13-15-11-25(12-15)20(27)7-4-14-8-16-5-6-19(26)24-21(16)23-10-14/h1-4,7-10,15H,5-6,11-13H2,(H,23,24,26)/b7-4+

> <Ligand InChI Key>
XMPSGKJNOMBDDG-QPJJXVBHSA-N

> <BindingDB MonomerID>
50052225

> <BindingDB Ligand Name>
CHEMBL3322708

> <Target Name>
Enoyl-[acyl-carrier-protein] reductase [NADPH] FabI [9-251]

> <Target Source Organism According to Curator or DataSource>
Staphylococcus aureus

> <Ki (nM)>


> <IC50 (nM)>
 438

> <Kd (nM)>


> <EC50 (nM)>


> <kon (M-1-s-1)>


> <koff (s-1)>


> <pH>


> <Temp C>


> <Curation/DataSource>
ChEMBL

> <Article DOI>
10.1016/j.ejmech.2014.07.036

> <BindingDB Entry DOI>
10.7270/Q2CJ8G45

> <PMID>
25036796

> <PubChem AID>


> <Patent Number>


> <Authors>
Takhi, M; Sreenivas, K; Reddy, CK; Munikumar, M; Praveena, K; Sudheer, P; Rao, BN; Ramakanth, G; Sivaranjani, J; Mulik, S; Reddy, YR; Narasimha Rao, K; Pallavi, R; Lakshminarasimhan, A; Panigrahi, SK; Antony, T; Abdullah, I; Lee, YK; Ramachandra, M; Yusof, R; Rahman, NA; Subramanya, H

> <Institution>
Aurigene Discovery Technologies Ltd

> <Link to Ligand in BindingDB>
http://www.bindingdb.org/bind/chemsearch/marvin/MolStructure.jsp?monomerid=50052225

> <Link to Ligand-Target Pair in BindingDB>
http://www.bindingdb.org/jsp/dbsearch/PrimarySearch_ki.jsp?energyterm=kJ/mole&tag=pol&polymerid=50004708&target=Enoyl-%5Bacyl-carrier-protein%5D+reductase+%5BNADPH%5D+FabI+%5B9-251%5D&column=ki&startPg=0&Increment=50&submit=Search

> <Link to Ligand-Target Pair in BindingDB>
http://www.bindingdb.org/jsp/dbsearch/PrimarySearch_ki.jsp?energyterm=kJ/mole&tag=r21&monomerid=50052225&enzyme=Enoyl-%5Bacyl-carrier-protein%5D+reductase+%5BNADPH%5D+FabI+%5B9-251%5D&column=ki&startPg=0&Increment=50&submit=Search

> <Ligand HET ID in PDB>


> <PDB ID(s) for Ligand-Target Complex>


> <PubChem CID of Ligand>
118710274

> <PubChem SID of Ligand>
103949121

> <ChEBI ID of Ligand>


> <ChEMBL ID of Ligand>
CHEMBL3322708

> <DrugBank ID of Ligand>


> <IUPHAR_GRAC ID of Ligand>


> <KEGG ID of Ligand>


> <ZINC ID of Ligand>
ZINC13756980

> <Number of Protein Chains in Target (bigger than 1 implies a multichain complex)>
1

> <BindingDB Target Chain Sequence>
YVIMGIANKRSIAFGVAKVLDQLGAKLVFTYRKERSRKELEKLLEQLNQPEAHLYQIDVQSDEEVINGFEQIGKDVGNIDGVYHSIAFANMEDLRGRFSETSREGFLLAQDISSYSLTIVAHEAKKLMPEGGSIVATTYLGGEFAVQNYNVMGVAKASLEANVKYLALDLGPDNIRVNAISAGPIRTLSAKGVGGFNTILKEIEERAPLKRNVDQVEVGKTAAYLLSDLSSGVTGENIHVDSG

> <PDB ID(s) of Target Chain>
3GNS,3GNT,3GR6,4ALI,4ALJ,4ALK,4ALL,4ALM,4ALN,4BNF,4BNG,4BNH,4BNI,4BNJ,4BNK,4BNL,4BNM,4BNN,4CUZ,4CV0,4CV1,4D41,4D42,4D43,4D44,4D45,4FS3,4NZ9,6TBB,6TBC,6YUR

> <UniProt (SwissProt) Recommended Name of Target Chain>
Enoyl-[acyl-carrier-protein] reductase [NADPH] FabI

> <UniProt (SwissProt) Entry Name of Target Chain>
FABI_STAAR

> <UniProt (SwissProt) Primary ID of Target Chain>
Q6GI75

> <UniProt (SwissProt) Secondary ID(s) of Target Chain>


> <UniProt (SwissProt) Alternative ID(s) of Target Chain>


> <UniProt (TrEMBL) Submitted Name of Target Chain>


> <UniProt (TrEMBL) Entry Name of Target Chain>


> <UniProt (TrEMBL) Primary ID of Target Chain>


> <UniProt (TrEMBL) Secondary ID(s) of Target Chain>


> <UniProt (TrEMBL) Alternative ID(s) of Target Chain>


$$$$
15

Vconf v2.0 Academic SN VC001-00000579
 37 39  0  0  0  0  0  0  0  0999 V2000
   -3.0710    3.1750    0.6180 C   0  0  0  0  0  0  0  0  0  0  0
   -4.2750    2.4490    0.6220 C   0  0  0  0  0  0  0  0  0  0  0
   -4.2660    1.0410    0.5200 C   0  0  0  0  0  0  0  0  0  0  0
   -3.0240    0.3760    0.4300 C   0  0  0  0  0  0  0  0  0  0  0
   -1.8220    1.1020    0.4290 C   0  0  0  0  0  0  0  0  0  0  0
   -1.8360    2.5110    0.5120 C   0  0  0  0  0  0  0  0  0  0  0
   -3.1080    4.5220    0.7180 O   0  0  0  0  0  0  0  0  0  0  0
   -0.7020    3.2810    0.5390 O   0  0  0  0  0  0  0  0  0  0  0
    0.4940    2.9320   -0.0300 C   0  0  0  0  0  0  0  0  0  0  0
    1.6880    3.0460    0.7160 C   0  0  0  0  0  0  0  0  0  0  0
    0.5590    2.5050   -1.3730 C   0  0  0  0  0  0  0  0  0  0  0
    1.7910    2.1730   -1.9590 C   0  0  0  0  0  0  0  0  0  0  0
    2.9770    2.2740   -1.2100 C   0  0  0  0  0  0  0  0  0  0  0
    2.9230    2.7120    0.1260 C   0  0  0  0  0  0  0  0  0  0  0
    1.6640    3.5720    2.3260 Cl  0  0  0  0  0  0  0  0  0  0  0
    4.4620    1.8770   -1.9160 Cl  0  0  0  0  0  0  0  0  0  0  0
   -5.4800    0.3130    0.5360 C   0  0  0  0  0  0  0  0  0  0  0
   -5.8980   -0.4950   -0.5570 C   0  0  0  0  0  0  0  0  0  0  0
   -7.1210   -1.1940   -0.4730 C   0  0  0  0  0  0  0  0  0  0  0
   -7.9270   -1.0990    0.6720 C   0  0  0  0  0  0  0  0  0  0  0
   -7.5210   -0.2960    1.7470 C   0  0  0  0  0  0  0  0  0  0  0
   -6.3080    0.4060    1.6780 C   0  0  0  0  0  0  0  0  0  0  0
   -5.1070   -0.6040   -1.7990 C   0  0  0  0  0  0  0  0  0  0  0
   -5.1590    2.9560    0.6950 H   0  0  0  0  0  0  0  0  0  0  0
   -2.9870   -0.6430    0.3780 H   0  0  0  0  0  0  0  0  0  0  0
   -0.9350    0.6000    0.3770 H   0  0  0  0  0  0  0  0  0  0  0
   -2.2220    4.9440    0.7070 H   0  0  0  0  0  0  0  0  0  0  0
   -0.2950    2.4370   -1.9270 H   0  0  0  0  0  0  0  0  0  0  0
    1.8160    1.8620   -2.9320 H   0  0  0  0  0  0  0  0  0  0  0
    3.7850    2.7900    0.6700 H   0  0  0  0  0  0  0  0  0  0  0
   -7.4320   -1.7750   -1.2530 H   0  0  0  0  0  0  0  0  0  0  0
   -8.8090   -1.6100    0.7200 H   0  0  0  0  0  0  0  0  0  0  0
   -8.1060   -0.2240    2.5800 H   0  0  0  0  0  0  0  0  0  0  0
   -6.0280    0.9830    2.4740 H   0  0  0  0  0  0  0  0  0  0  0
   -5.6340   -1.1820   -2.5600 H   0  0  0  0  0  0  0  0  0  0  0
   -4.9140    0.3920   -2.2000 H   0  0  0  0  0  0  0  0  0  0  0
   -4.1580   -1.0990   -1.5940 H   0  0  0  0  0  0  0  0  0  0  0
  1  2  2  0  0  0  0
  1  6  1  0  0  0  0
  1  7  1  0  0  0  0
  2  3  1  0  0  0  0
  2 24  1  0  0  0  0
  3  4  2  0  0  0  0
  3 17  1  0  0  0  0
  4  5  1  0  0  0  0
  4 25  1  0  0  0  0
  5  6  2  0  0  0  0
  5 26  1  0  0  0  0
  6  8  1  0  0  0  0
  7 27  1  0  0  0  0
  8  9  1  0  0  0  0
  9 10  2  0  0  0  0
  9 11  1  0  0  0  0
 10 14  1  0  0  0  0
 10 15  1  0  0  0  0
 11 12  2  0  0  0  0
 11 28  1  0  0  0  0
 12 13  1  0  0  0  0
 12 29  1  0  0  0  0
 13 14  2  0  0  0  0
 13 16  1  0  0  0  0
 14 30  1  0  0  0  0
 17 18  1  0  0  0  0
 17 22  2  0  0  0  0
 18 19  2  0  0  0  0
 18 23  1  0  0  0  0
 19 20  1  0  0  0  0
 19 31  1  0  0  0  0
 20 21  2  0  0  0  0
 20 32  1  0  0  0  0
 21 22  1  0  0  0  0
 21 33  1  0  0  0  0
 22 34  1  0  0  0  0
 23 35  1  0  0  0  0
 23 36  1  0  0  0  0
 23 37  1  0  0  0  0
M  END
> <From>
www.bindingDB.org

> <BindingDB Reactant_set_id>
46067

> <Ligand InChI>
InChI=1S/C19H14Cl2O2/c1-12-4-2-3-5-15(12)13-6-8-19(17(22)10-13)23-18-9-7-14(20)11-16(18)21/h2-11,22H,1H3

> <Ligand InChI Key>
VDWAWADVXJMBAA-UHFFFAOYSA-N

> <BindingDB MonomerID>
25414

> <BindingDB Ligand Name>
2-(2,4-dichlorophenoxy)-5-(2-methylphenyl)phenol::Triclosan derivative, 15

> <Target Name>
Enoyl-ACP reductase

> <Target Source Organism According to Curator or DataSource>
Plasmodium falciparum

> <Ki (nM)>


> <IC50 (nM)>
 440

> <Kd (nM)>


> <EC50 (nM)>


> <kon (M-1-s-1)>


> <koff (s-1)>


> <pH>
7.9

> <Temp C>
25.00

> <Curation/DataSource>
Curated from the literature by BindingDB

> <Article DOI>
10.1074/jbc.M701813200

> <BindingDB Entry DOI>
10.7270/Q22V2DFD

> <PMID>
17567585

> <PubChem AID>
aid1798551

> <Patent Number>


> <Authors>
Freundlich, JS; Wang, F; Tsai, HC; Kuo, M; Shieh, HM; Anderson, JW; Nkrumah, LJ; Valderramos, JC; Yu, M; Kumar, TR; Valderramos, SG; Jacobs, WR; Schiehser, GA; Jacobus, DP; Fidock, DA; Sacchettini, JC

> <Institution>
Jacobus Pharmaceutical Company

> <Link to Ligand in BindingDB>
http://www.bindingdb.org/bind/chemsearch/marvin/MolStructure.jsp?monomerid=25414

> <Link to Ligand-Target Pair in BindingDB>
http://www.bindingdb.org/jsp/dbsearch/PrimarySearch_ki.jsp?energyterm=kJ/mole&tag=pol&polymerid=2820&target=Enoyl-ACP+reductase&column=ki&startPg=0&Increment=50&submit=Search

> <Link to Ligand-Target Pair in BindingDB>
http://www.bindingdb.org/jsp/dbsearch/PrimarySearch_ki.jsp?energyterm=kJ/mole&tag=r21&monomerid=25414&enzyme=Enoyl-ACP+reductase&column=ki&startPg=0&Increment=50&submit=Search

> <Ligand HET ID in PDB>
JPA

> <PDB ID(s) for Ligand-Target Complex>
2FOI

> <PubChem CID of Ligand>
15942656

> <PubChem SID of Ligand>
56374553

> <ChEBI ID of Ligand>


> <ChEMBL ID of Ligand>


> <DrugBank ID of Ligand>


> <IUPHAR_GRAC ID of Ligand>


> <KEGG ID of Ligand>


> <ZINC ID of Ligand>
ZINC16052044

> <Number of Protein Chains in Target (bigger than 1 implies a multichain complex)>
1

> <BindingDB Target Chain Sequence>
MNKISQRLLFLFLHFYTTVCFIQNNTQKTFHNVLQNEQIRGKEKAFYRKEKRENIFIGNK
MKHVHNMNNTHNNNHYMEKEEQDASNINKIKEENKNEDICFIAGIGDTNGYGWGIAKELS
KRNVKIIFGIWPPVYNIFMKNYKNGKFDNDMIIDKDKKMNILDMLPFDASFDTANDIDEE
TKNNKRYNMLQNYTIEDVANLIHQKYGKINMLVHSLANAKEVQKDLLNTSRKGYLDALSK
SSYSLISLCKYFVNIMKPQSSIISLTYHASQKVVPGYGGGMSSAKAALESDTRVLAYHLG
RNYNIRINTISAGPLKSRAATAINKLNNTYENNTNQNKNRNRHDVHNIMNNSGEKEEKKI
SASQNYTFIDYAIEYSEKYAPLRQKLLSTDIGSVASFLLSRESRAITGQTIYVDNGLNIM
FLPDDIYRNENE

> <PDB ID(s) of Target Chain>
1NHG,1NHW,1NNU,1UH5,1V35,2FOI,2NQ8,3LSY,3LT0,3LT1,3LT2,3LT4

> <UniProt (SwissProt) Recommended Name of Target Chain>


> <UniProt (SwissProt) Entry Name of Target Chain>


> <UniProt (SwissProt) Primary ID of Target Chain>


> <UniProt (SwissProt) Secondary ID(s) of Target Chain>


> <UniProt (SwissProt) Alternative ID(s) of Target Chain>


> <UniProt (TrEMBL) Submitted Name of Target Chain>
Enoyl-ACP reductase

> <UniProt (TrEMBL) Entry Name of Target Chain>
Q9BJJ9_PLAFA

> <UniProt (TrEMBL) Primary ID of Target Chain>
Q9BJJ9

> <UniProt (TrEMBL) Secondary ID(s) of Target Chain>


> <UniProt (TrEMBL) Alternative ID(s) of Target Chain>


$$$$
22

Vconf v2.0 Academic SN VC001-00000579
 43 45  0  0  0  0  0  0  0  0999 V2000
   -2.8820    3.0410    0.5810 C   0  0  0  0  0  0  0  0  0  0  0
   -3.9990    2.2290    0.3210 C   0  0  0  0  0  0  0  0  0  0  0
   -4.1030    0.9490    0.9010 C   0  0  0  0  0  0  0  0  0  0  0
   -3.0660    0.4910    1.7380 C   0  0  0  0  0  0  0  0  0  0  0
   -1.9490    1.3030    1.9990 C   0  0  0  0  0  0  0  0  0  0  0
   -1.8540    2.5910    1.4310 C   0  0  0  0  0  0  0  0  0  0  0
   -2.8000    4.2630    0.0110 O   0  0  0  0  0  0  0  0  0  0  0
   -0.7840    3.4260    1.6240 O   0  0  0  0  0  0  0  0  0  0  0
   -0.0180    3.4790    2.7600 C   0  0  0  0  0  0  0  0  0  0  0
    1.3860    3.5850    2.6480 C   0  0  0  0  0  0  0  0  0  0  0
   -0.6080    3.4860    4.0420 C   0  0  0  0  0  0  0  0  0  0  0
    0.1880    3.5710    5.1960 C   0  0  0  0  0  0  0  0  0  0  0
    1.5860    3.6630    5.0810 C   0  0  0  0  0  0  0  0  0  0  0
    2.1820    3.6710    3.8060 C   0  0  0  0  0  0  0  0  0  0  0
    2.1420    3.6030    1.1310 Cl  0  0  0  0  0  0  0  0  0  0  0
   -5.2730    0.0920    0.6290 C   0  0  0  0  0  0  0  0  0  0  0
    2.5470    3.7700    6.4690 Cl  0  0  0  0  0  0  0  0  0  0  0
   -6.1110   -0.1580    1.8980 C   0  0  0  0  0  0  0  0  0  0  0
   -7.3500   -1.0080    1.5550 C   0  0  0  0  0  0  0  0  0  0  0
   -8.1590   -1.3140    2.7520 C   0  0  0  0  0  0  0  0  0  0  0
   -9.0780   -2.9290    4.3400 C   0  0  0  0  0  0  0  0  0  0  0
   -9.7160   -1.8880    5.0360 C   0  0  0  0  0  0  0  0  0  0  0
   -9.5800   -0.5620    4.5930 C   0  0  0  0  0  0  0  0  0  0  0
   -8.8060   -0.2770    3.4550 C   0  0  0  0  0  0  0  0  0  0  0
   -8.3030   -2.6430    3.2030 C   0  0  0  0  0  0  0  0  0  0  0
   -4.7380    2.5730   -0.2930 H   0  0  0  0  0  0  0  0  0  0  0
   -3.1210   -0.4380    2.1580 H   0  0  0  0  0  0  0  0  0  0  0
   -1.2030    0.9510    2.5990 H   0  0  0  0  0  0  0  0  0  0  0
   -1.9840    4.7550    0.2430 H   0  0  0  0  0  0  0  0  0  0  0
   -1.6230    3.4310    4.1370 H   0  0  0  0  0  0  0  0  0  0  0
   -0.2590    3.5700    6.1140 H   0  0  0  0  0  0  0  0  0  0  0
    3.1990    3.7430    3.7220 H   0  0  0  0  0  0  0  0  0  0  0
   -5.9180    0.5590   -0.1180 H   0  0  0  0  0  0  0  0  0  0  0
   -4.9300   -0.8650    0.2320 H   0  0  0  0  0  0  0  0  0  0  0
   -5.5070   -0.6870    2.6380 H   0  0  0  0  0  0  0  0  0  0  0
   -6.4270    0.8010    2.3130 H   0  0  0  0  0  0  0  0  0  0  0
   -7.9680   -0.4670    0.8370 H   0  0  0  0  0  0  0  0  0  0  0
   -7.0100   -1.9310    1.0820 H   0  0  0  0  0  0  0  0  0  0  0
   -9.1770   -3.8930    4.6600 H   0  0  0  0  0  0  0  0  0  0  0
  -10.2780   -2.0960    5.8620 H   0  0  0  0  0  0  0  0  0  0  0
  -10.0440    0.1940    5.0970 H   0  0  0  0  0  0  0  0  0  0  0
   -8.7150    0.6890    3.1380 H   0  0  0  0  0  0  0  0  0  0  0
   -7.8430   -3.4050    2.7040 H   0  0  0  0  0  0  0  0  0  0  0
  1  2  2  0  0  0  0
  1  6  1  0  0  0  0
  1  7  1  0  0  0  0
  2  3  1  0  0  0  0
  2 26  1  0  0  0  0
  3  4  2  0  0  0  0
  3 16  1  0  0  0  0
  4  5  1  0  0  0  0
  4 27  1  0  0  0  0
  5  6  2  0  0  0  0
  5 28  1  0  0  0  0
  6  8  1  0  0  0  0
  7 29  1  0  0  0  0
  8  9  1  0  0  0  0
  9 10  2  0  0  0  0
  9 11  1  0  0  0  0
 10 14  1  0  0  0  0
 10 15  1  0  0  0  0
 11 12  2  0  0  0  0
 11 30  1  0  0  0  0
 12 13  1  0  0  0  0
 12 31  1  0  0  0  0
 13 14  2  0  0  0  0
 13 17  1  0  0  0  0
 14 32  1  0  0  0  0
 16 18  1  0  0  0  0
 16 33  1  0  0  0  0
 16 34  1  0  0  0  0
 18 19  1  0  0  0  0
 18 35  1  0  0  0  0
 18 36  1  0  0  0  0
 19 20  1  0  0  0  0
 19 37  1  0  0  0  0
 19 38  1  0  0  0  0
 20 24  2  0  0  0  0
 20 25  1  0  0  0  0
 21 22  1  0  0  0  0
 21 25  2  0  0  0  0
 21 39  1  0  0  0  0
 22 23  2  0  0  0  0
 22 40  1  0  0  0  0
 23 24  1  0  0  0  0
 23 41  1  0  0  0  0
 24 42  1  0  0  0  0
 25 43  1  0  0  0  0
M  END
> <From>
www.bindingDB.org

> <BindingDB Reactant_set_id>
46074

> <Ligand InChI>
InChI=1S/C21H18Cl2O2/c22-17-10-12-20(18(23)14-17)25-21-11-9-16(13-19(21)24)8-4-7-15-5-2-1-3-6-15/h1-3,5-6,9-14,24H,4,7-8H2

> <Ligand InChI Key>
MJRPBNSOVIMDHN-UHFFFAOYSA-N

> <BindingDB MonomerID>
25421

> <BindingDB Ligand Name>
2-(2,4-dichlorophenoxy)-5-(3-phenylpropyl)phenol::Triclosan derivative, 22

> <Target Name>
Enoyl-ACP reductase

> <Target Source Organism According to Curator or DataSource>
Plasmodium falciparum

> <Ki (nM)>


> <IC50 (nM)>
 440

> <Kd (nM)>


> <EC50 (nM)>


> <kon (M-1-s-1)>


> <koff (s-1)>


> <pH>
7.9

> <Temp C>
25.00

> <Curation/DataSource>
Curated from the literature by BindingDB

> <Article DOI>
10.1074/jbc.M701813200

> <BindingDB Entry DOI>
10.7270/Q22V2DFD

> <PMID>
17567585

> <PubChem AID>
aid1798551

> <Patent Number>


> <Authors>
Freundlich, JS; Wang, F; Tsai, HC; Kuo, M; Shieh, HM; Anderson, JW; Nkrumah, LJ; Valderramos, JC; Yu, M; Kumar, TR; Valderramos, SG; Jacobs, WR; Schiehser, GA; Jacobus, DP; Fidock, DA; Sacchettini, JC

> <Institution>
Jacobus Pharmaceutical Company

> <Link to Ligand in BindingDB>
http://www.bindingdb.org/bind/chemsearch/marvin/MolStructure.jsp?monomerid=25421

> <Link to Ligand-Target Pair in BindingDB>
http://www.bindingdb.org/jsp/dbsearch/PrimarySearch_ki.jsp?energyterm=kJ/mole&tag=pol&polymerid=2820&target=Enoyl-ACP+reductase&column=ki&startPg=0&Increment=50&submit=Search

> <Link to Ligand-Target Pair in BindingDB>
http://www.bindingdb.org/jsp/dbsearch/PrimarySearch_ki.jsp?energyterm=kJ/mole&tag=r21&monomerid=25421&enzyme=Enoyl-ACP+reductase&column=ki&startPg=0&Increment=50&submit=Search

> <Ligand HET ID in PDB>
JPN

> <PDB ID(s) for Ligand-Target Complex>
2OL4

> <PubChem CID of Ligand>
16220126

> <PubChem SID of Ligand>
56374560

> <ChEBI ID of Ligand>


> <ChEMBL ID of Ligand>


> <DrugBank ID of Ligand>


> <IUPHAR_GRAC ID of Ligand>


> <KEGG ID of Ligand>


> <ZINC ID of Ligand>
ZINC16052305

> <Number of Protein Chains in Target (bigger than 1 implies a multichain complex)>
1

> <BindingDB Target Chain Sequence>
MNKISQRLLFLFLHFYTTVCFIQNNTQKTFHNVLQNEQIRGKEKAFYRKEKRENIFIGNK
MKHVHNMNNTHNNNHYMEKEEQDASNINKIKEENKNEDICFIAGIGDTNGYGWGIAKELS
KRNVKIIFGIWPPVYNIFMKNYKNGKFDNDMIIDKDKKMNILDMLPFDASFDTANDIDEE
TKNNKRYNMLQNYTIEDVANLIHQKYGKINMLVHSLANAKEVQKDLLNTSRKGYLDALSK
SSYSLISLCKYFVNIMKPQSSIISLTYHASQKVVPGYGGGMSSAKAALESDTRVLAYHLG
RNYNIRINTISAGPLKSRAATAINKLNNTYENNTNQNKNRNRHDVHNIMNNSGEKEEKKI
SASQNYTFIDYAIEYSEKYAPLRQKLLSTDIGSVASFLLSRESRAITGQTIYVDNGLNIM
FLPDDIYRNENE

> <PDB ID(s) of Target Chain>
1NHG,1NHW,1NNU,1UH5,1V35,2FOI,2NQ8,3LSY,3LT0,3LT1,3LT2,3LT4

> <UniProt (SwissProt) Recommended Name of Target Chain>


> <UniProt (SwissProt) Entry Name of Target Chain>


> <UniProt (SwissProt) Primary ID of Target Chain>


> <UniProt (SwissProt) Secondary ID(s) of Target Chain>


> <UniProt (SwissProt) Alternative ID(s) of Target Chain>


> <UniProt (TrEMBL) Submitted Name of Target Chain>
Enoyl-ACP reductase

> <UniProt (TrEMBL) Entry Name of Target Chain>
Q9BJJ9_PLAFA

> <UniProt (TrEMBL) Primary ID of Target Chain>
Q9BJJ9

> <UniProt (TrEMBL) Secondary ID(s) of Target Chain>


> <UniProt (TrEMBL) Alternative ID(s) of Target Chain>


$$$$
10

Vconf v2.0 Academic SN VC001-00000579
 36 37  0  0  0  0  0  0  0  0999 V2000
   -2.8900    2.9760    0.4420 C   0  0  0  0  0  0  0  0  0  0  0
   -3.9870    2.1560    0.1250 C   0  0  0  0  0  0  0  0  0  0  0
   -4.1450    0.9020    0.7490 C   0  0  0  0  0  0  0  0  0  0  0
   -3.1820    0.4780    1.6860 C   0  0  0  0  0  0  0  0  0  0  0
   -2.0860    1.2980    2.0030 C   0  0  0  0  0  0  0  0  0  0  0
   -1.9390    2.5610    1.3920 C   0  0  0  0  0  0  0  0  0  0  0
   -2.7560    4.1730   -0.1710 O   0  0  0  0  0  0  0  0  0  0  0
   -0.8850    3.4000    1.6460 O   0  0  0  0  0  0  0  0  0  0  0
   -0.2560    3.5260    2.8590 C   0  0  0  0  0  0  0  0  0  0  0
    1.1510    3.6320    2.9060 C   0  0  0  0  0  0  0  0  0  0  0
   -0.9910    3.6030    4.0610 C   0  0  0  0  0  0  0  0  0  0  0
   -0.3360    3.7570    5.2940 C   0  0  0  0  0  0  0  0  0  0  0
    1.0660    3.8460    5.3380 C   0  0  0  0  0  0  0  0  0  0  0
    1.8070    3.7860    4.1430 C   0  0  0  0  0  0  0  0  0  0  0
    2.0800    3.5680    1.4900 Cl  0  0  0  0  0  0  0  0  0  0  0
    1.8570    4.0300    6.8220 Cl  0  0  0  0  0  0  0  0  0  0  0
   -5.2930    0.0350    0.4190 C   0  0  0  0  0  0  0  0  0  0  0
   -6.2380   -0.1510    1.6210 C   0  0  0  0  0  0  0  0  0  0  0
   -7.4210   -1.0520    1.2340 C   0  0  0  0  0  0  0  0  0  0  0
   -8.3690   -1.2390    2.4250 C   0  0  0  0  0  0  0  0  0  0  0
   -4.6720    2.4750   -0.5610 H   0  0  0  0  0  0  0  0  0  0  0
   -3.2750   -0.4330    2.1370 H   0  0  0  0  0  0  0  0  0  0  0
   -1.3930    0.9710    2.6770 H   0  0  0  0  0  0  0  0  0  0  0
   -1.9590    4.6730    0.1060 H   0  0  0  0  0  0  0  0  0  0  0
   -2.0100    3.5490    4.0400 H   0  0  0  0  0  0  0  0  0  0  0
   -0.8870    3.8060    6.1520 H   0  0  0  0  0  0  0  0  0  0  0
    2.8270    3.8560    4.1750 H   0  0  0  0  0  0  0  0  0  0  0
   -5.8690    0.4650   -0.4030 H   0  0  0  0  0  0  0  0  0  0  0
   -4.9230   -0.9410    0.0990 H   0  0  0  0  0  0  0  0  0  0  0
   -5.7000   -0.6130    2.4510 H   0  0  0  0  0  0  0  0  0  0  0
   -6.6190    0.8220    1.9390 H   0  0  0  0  0  0  0  0  0  0  0
   -7.9700   -0.5980    0.4090 H   0  0  0  0  0  0  0  0  0  0  0
   -7.0460   -2.0270    0.9200 H   0  0  0  0  0  0  0  0  0  0  0
   -9.1910   -1.8930    2.1340 H   0  0  0  0  0  0  0  0  0  0  0
   -7.8300   -1.6900    3.2590 H   0  0  0  0  0  0  0  0  0  0  0
   -8.7700   -0.2730    2.7330 H   0  0  0  0  0  0  0  0  0  0  0
  1  2  2  0  0  0  0
  1  6  1  0  0  0  0
  1  7  1  0  0  0  0
  2  3  1  0  0  0  0
  2 21  1  0  0  0  0
  3  4  2  0  0  0  0
  3 17  1  0  0  0  0
  4  5  1  0  0  0  0
  4 22  1  0  0  0  0
  5  6  2  0  0  0  0
  5 23  1  0  0  0  0
  6  8  1  0  0  0  0
  7 24  1  0  0  0  0
  8  9  1  0  0  0  0
  9 10  2  0  0  0  0
  9 11  1  0  0  0  0
 10 14  1  0  0  0  0
 10 15  1  0  0  0  0
 11 12  2  0  0  0  0
 11 25  1  0  0  0  0
 12 13  1  0  0  0  0
 12 26  1  0  0  0  0
 13 14  2  0  0  0  0
 13 16  1  0  0  0  0
 14 27  1  0  0  0  0
 17 18  1  0  0  0  0
 17 28  1  0  0  0  0
 17 29  1  0  0  0  0
 18 19  1  0  0  0  0
 18 30  1  0  0  0  0
 18 31  1  0  0  0  0
 19 20  1  0  0  0  0
 19 32  1  0  0  0  0
 19 33  1  0  0  0  0
 20 34  1  0  0  0  0
 20 35  1  0  0  0  0
 20 36  1  0  0  0  0
M  END
> <From>
www.bindingDB.org

> <BindingDB Reactant_set_id>
46062

> <Ligand InChI>
InChI=1S/C16H16Cl2O2/c1-2-3-4-11-5-7-16(14(19)9-11)20-15-8-6-12(17)10-13(15)18/h5-10,19H,2-4H2,1H3

> <Ligand InChI Key>
YJSDMDYNCMZAED-UHFFFAOYSA-N

> <BindingDB MonomerID>
25409

> <BindingDB Ligand Name>
5-butyl-2-(2,4-dichlorophenoxy)phenol::Triclosan derivative, 10

> <Target Name>
Enoyl-ACP reductase

> <Target Source Organism According to Curator or DataSource>
Plasmodium falciparum

> <Ki (nM)>


> <IC50 (nM)>
 480

> <Kd (nM)>


> <EC50 (nM)>


> <kon (M-1-s-1)>


> <koff (s-1)>


> <pH>
7.9

> <Temp C>
25.00

> <Curation/DataSource>
Curated from the literature by BindingDB

> <Article DOI>
10.1074/jbc.M701813200

> <BindingDB Entry DOI>
10.7270/Q22V2DFD

> <PMID>
17567585

> <PubChem AID>
aid1798551

> <Patent Number>


> <Authors>
Freundlich, JS; Wang, F; Tsai, HC; Kuo, M; Shieh, HM; Anderson, JW; Nkrumah, LJ; Valderramos, JC; Yu, M; Kumar, TR; Valderramos, SG; Jacobs, WR; Schiehser, GA; Jacobus, DP; Fidock, DA; Sacchettini, JC

> <Institution>
Jacobus Pharmaceutical Company

> <Link to Ligand in BindingDB>
http://www.bindingdb.org/bind/chemsearch/marvin/MolStructure.jsp?monomerid=25409

> <Link to Ligand-Target Pair in BindingDB>
http://www.bindingdb.org/jsp/dbsearch/PrimarySearch_ki.jsp?energyterm=kJ/mole&tag=pol&polymerid=2820&target=Enoyl-ACP+reductase&column=ki&startPg=0&Increment=50&submit=Search

> <Link to Ligand-Target Pair in BindingDB>
http://www.bindingdb.org/jsp/dbsearch/PrimarySearch_ki.jsp?energyterm=kJ/mole&tag=r21&monomerid=25409&enzyme=Enoyl-ACP+reductase&column=ki&startPg=0&Increment=50&submit=Search

> <Ligand HET ID in PDB>


> <PDB ID(s) for Ligand-Target Complex>


> <PubChem CID of Ligand>
25023960

> <PubChem SID of Ligand>
56374548

> <ChEBI ID of Ligand>


> <ChEMBL ID of Ligand>


> <DrugBank ID of Ligand>


> <IUPHAR_GRAC ID of Ligand>


> <KEGG ID of Ligand>


> <ZINC ID of Ligand>
ZINC29061534

> <Number of Protein Chains in Target (bigger than 1 implies a multichain complex)>
1

> <BindingDB Target Chain Sequence>
MNKISQRLLFLFLHFYTTVCFIQNNTQKTFHNVLQNEQIRGKEKAFYRKEKRENIFIGNK
MKHVHNMNNTHNNNHYMEKEEQDASNINKIKEENKNEDICFIAGIGDTNGYGWGIAKELS
KRNVKIIFGIWPPVYNIFMKNYKNGKFDNDMIIDKDKKMNILDMLPFDASFDTANDIDEE
TKNNKRYNMLQNYTIEDVANLIHQKYGKINMLVHSLANAKEVQKDLLNTSRKGYLDALSK
SSYSLISLCKYFVNIMKPQSSIISLTYHASQKVVPGYGGGMSSAKAALESDTRVLAYHLG
RNYNIRINTISAGPLKSRAATAINKLNNTYENNTNQNKNRNRHDVHNIMNNSGEKEEKKI
SASQNYTFIDYAIEYSEKYAPLRQKLLSTDIGSVASFLLSRESRAITGQTIYVDNGLNIM
FLPDDIYRNENE

> <PDB ID(s) of Target Chain>
1NHG,1NHW,1NNU,1UH5,1V35,2FOI,2NQ8,3LSY,3LT0,3LT1,3LT2,3LT4

> <UniProt (SwissProt) Recommended Name of Target Chain>


> <UniProt (SwissProt) Entry Name of Target Chain>


> <UniProt (SwissProt) Primary ID of Target Chain>


> <UniProt (SwissProt) Secondary ID(s) of Target Chain>


> <UniProt (SwissProt) Alternative ID(s) of Target Chain>


> <UniProt (TrEMBL) Submitted Name of Target Chain>
Enoyl-ACP reductase

> <UniProt (TrEMBL) Entry Name of Target Chain>
Q9BJJ9_PLAFA

> <UniProt (TrEMBL) Primary ID of Target Chain>
Q9BJJ9

> <UniProt (TrEMBL) Secondary ID(s) of Target Chain>


> <UniProt (TrEMBL) Alternative ID(s) of Target Chain>


$$$$
BindingDB_50280909_3D

Vconf v2.1
 44 47  0  0  0  0  0  0  0  0999 V2000
    6.8230   -5.8510    1.4160 C   0  0  0  0  0  0  0  0  0  0  0
   12.6470   -6.4300    3.0410 C   0  0  0  0  0  0  0  0  0  0  0
   13.8600   -6.0490    3.6570 C   0  0  0  0  0  0  0  0  0  0  0
   14.9870   -6.7770    3.4630 N   0  0  0  0  0  0  0  0  0  0  0
   12.6720   -7.5850    2.2300 C   0  0  0  0  0  0  0  0  0  0  0
   13.8550   -8.3230    2.0440 C   0  0  0  0  0  0  0  0  0  0  0
   15.0270   -7.8870    2.6880 C   0  0  0  0  0  0  0  0  0  0  0
   16.1980   -8.5430    2.5610 N   0  0  0  0  0  0  0  0  0  0  0
   16.3500   -9.6530    1.8090 C   0  0  0  0  0  0  0  0  0  0  0
   15.2360  -10.2440    1.0490 C   0  0  0  0  0  0  0  0  0  0  0
   13.8650   -9.5340    1.2010 C   0  0  0  0  0  0  0  0  0  0  0
   17.4790  -10.1860    1.7520 O   0  0  0  0  0  0  0  0  0  0  0
   11.4250   -5.7280    3.1920 C   0  0  0  0  0  0  0  0  0  0  0
   11.2430   -4.5710    3.9600 C   0  0  0  0  0  0  0  0  0  0  0
   10.0080   -3.9160    4.0760 C   0  0  0  0  0  0  0  0  0  0  0
    8.8420   -4.3770    3.4590 N   0  0  0  0  0  0  0  0  0  0  0
    9.9410   -2.8670    4.7530 O   0  0  0  0  0  0  0  0  0  0  0
    8.0130   -3.7820    2.4150 C   0  0  0  0  0  0  0  0  0  0  0
    7.0800   -4.9930    2.5930 C   0  0  0  0  0  0  0  0  0  0  0
    7.9960   -5.5440    3.7010 C   0  0  0  0  0  0  0  0  0  0  0
    5.5040   -6.1430    1.0100 C   0  0  0  0  0  0  0  0  0  0  0
    5.2650   -6.9610   -0.1070 C   0  0  0  0  0  0  0  0  0  0  0
    6.3440   -7.4950   -0.8310 C   0  0  0  0  0  0  0  0  0  0  0
    7.6620   -7.2110   -0.4360 C   0  0  0  0  0  0  0  0  0  0  0
    7.8990   -6.3930    0.6820 C   0  0  0  0  0  0  0  0  0  0  0
   13.9120   -5.2260    4.2560 H   0  0  0  0  0  0  0  0  0  0  0
   11.8190   -7.9010    1.7640 H   0  0  0  0  0  0  0  0  0  0  0
   16.9720   -8.2000    3.0320 H   0  0  0  0  0  0  0  0  0  0  0
   15.1240  -11.2810    1.3670 H   0  0  0  0  0  0  0  0  0  0  0
   15.5120  -10.2420   -0.0060 H   0  0  0  0  0  0  0  0  0  0  0
   13.1580  -10.2500    1.6240 H   0  0  0  0  0  0  0  0  0  0  0
   13.5150   -9.2620    0.2040 H   0  0  0  0  0  0  0  0  0  0  0
   10.6090   -6.0940    2.6970 H   0  0  0  0  0  0  0  0  0  0  0
   12.0360   -4.1660    4.4580 H   0  0  0  0  0  0  0  0  0  0  0
    8.5110   -3.6710    1.4510 H   0  0  0  0  0  0  0  0  0  0  0
    7.5750   -2.8190    2.6800 H   0  0  0  0  0  0  0  0  0  0  0
    6.1230   -4.6760    3.0140 H   0  0  0  0  0  0  0  0  0  0  0
    8.4680   -6.5100    3.5210 H   0  0  0  0  0  0  0  0  0  0  0
    7.5460   -5.5750    4.6930 H   0  0  0  0  0  0  0  0  0  0  0
    4.7130   -5.7600    1.5290 H   0  0  0  0  0  0  0  0  0  0  0
    4.3070   -7.1670   -0.3940 H   0  0  0  0  0  0  0  0  0  0  0
    6.1710   -8.0890   -1.6420 H   0  0  0  0  0  0  0  0  0  0  0
    8.4470   -7.5980   -0.9610 H   0  0  0  0  0  0  0  0  0  0  0
    8.8600   -6.1910    0.9610 H   0  0  0  0  0  0  0  0  0  0  0
  1 19  1  0  0  0  0
  1 21  2  0  0  0  0
  1 25  1  0  0  0  0
  2  3  2  0  0  0  0
  2  5  1  0  0  0  0
  2 13  1  0  0  0  0
  3  4  1  0  0  0  0
  3 26  1  0  0  0  0
  4  7  2  0  0  0  0
  5  6  2  0  0  0  0
  5 27  1  0  0  0  0
  6  7  1  0  0  0  0
  6 11  1  0  0  0  0
  7  8  1  0  0  0  0
  8  9  1  0  0  0  0
  8 28  1  0  0  0  0
  9 10  1  0  0  0  0
  9 12  2  0  0  0  0
 10 11  1  0  0  0  0
 10 29  1  0  0  0  0
 10 30  1  0  0  0  0
 11 31  1  0  0  0  0
 11 32  1  0  0  0  0
 13 14  2  0  0  0  0
 13 33  1  0  0  0  0
 14 15  1  0  0  0  0
 14 34  1  0  0  0  0
 15 16  1  0  0  0  0
 15 17  2  0  0  0  0
 16 18  1  0  0  0  0
 16 20  1  0  0  0  0
 18 19  1  0  0  0  0
 18 35  1  0  0  0  0
 18 36  1  0  0  0  0
 19 20  1  0  0  0  0
 19 37  1  0  0  0  0
 20 38  1  0  0  0  0
 20 39  1  0  0  0  0
 21 22  1  0  0  0  0
 21 40  1  0  0  0  0
 22 23  2  0  0  0  0
 22 41  1  0  0  0  0
 23 24  1  0  0  0  0
 23 42  1  0  0  0  0
 24 25  2  0  0  0  0
 24 43  1  0  0  0  0
 25 44  1  0  0  0  0
M  END
> <From>
www.bindingDB.org

> <BindingDB Reactant_set_id>
50280909

> <Ligand InChI>
InChI=1S/C20H19N3O2/c24-18-8-7-16-10-14(11-21-20(16)22-18)6-9-19(25)23-12-17(13-23)15-4-2-1-3-5-15/h1-6,9-11,17H,7-8,12-13H2,(H,21,22,24)/b9-6+

> <Ligand InChI Key>
XWUDCBZHFRCBSR-RMKNXTFCSA-N

> <BindingDB MonomerID>
50052236

> <BindingDB Ligand Name>
CHEMBL3322723

> <Target Name>
Enoyl-[acyl-carrier-protein] reductase [NADPH] FabI [9-251]

> <Target Source Organism According to Curator or DataSource>
Staphylococcus aureus

> <Ki (nM)>


> <IC50 (nM)>
 488

> <Kd (nM)>


> <EC50 (nM)>


> <kon (M-1-s-1)>


> <koff (s-1)>


> <pH>


> <Temp C>


> <Curation/DataSource>
ChEMBL

> <Article DOI>
10.1016/j.ejmech.2014.07.036

> <BindingDB Entry DOI>
10.7270/Q2CJ8G45

> <PMID>
25036796

> <PubChem AID>


> <Patent Number>


> <Authors>
Takhi, M; Sreenivas, K; Reddy, CK; Munikumar, M; Praveena, K; Sudheer, P; Rao, BN; Ramakanth, G; Sivaranjani, J; Mulik, S; Reddy, YR; Narasimha Rao, K; Pallavi, R; Lakshminarasimhan, A; Panigrahi, SK; Antony, T; Abdullah, I; Lee, YK; Ramachandra, M; Yusof, R; Rahman, NA; Subramanya, H

> <Institution>
Aurigene Discovery Technologies Ltd

> <Link to Ligand in BindingDB>
http://www.bindingdb.org/bind/chemsearch/marvin/MolStructure.jsp?monomerid=50052236

> <Link to Ligand-Target Pair in BindingDB>
http://www.bindingdb.org/jsp/dbsearch/PrimarySearch_ki.jsp?energyterm=kJ/mole&tag=pol&polymerid=50004708&target=Enoyl-%5Bacyl-carrier-protein%5D+reductase+%5BNADPH%5D+FabI+%5B9-251%5D&column=ki&startPg=0&Increment=50&submit=Search

> <Link to Ligand-Target Pair in BindingDB>
http://www.bindingdb.org/jsp/dbsearch/PrimarySearch_ki.jsp?energyterm=kJ/mole&tag=r21&monomerid=50052236&enzyme=Enoyl-%5Bacyl-carrier-protein%5D+reductase+%5BNADPH%5D+FabI+%5B9-251%5D&column=ki&startPg=0&Increment=50&submit=Search

> <Ligand HET ID in PDB>


> <PDB ID(s) for Ligand-Target Complex>


> <PubChem CID of Ligand>
118710288

> <PubChem SID of Ligand>
103949132

> <ChEBI ID of Ligand>


> <ChEMBL ID of Ligand>
CHEMBL3322723

> <DrugBank ID of Ligand>


> <IUPHAR_GRAC ID of Ligand>


> <KEGG ID of Ligand>


> <ZINC ID of Ligand>
ZINC13757031

> <Number of Protein Chains in Target (bigger than 1 implies a multichain complex)>
1

> <BindingDB Target Chain Sequence>
YVIMGIANKRSIAFGVAKVLDQLGAKLVFTYRKERSRKELEKLLEQLNQPEAHLYQIDVQSDEEVINGFEQIGKDVGNIDGVYHSIAFANMEDLRGRFSETSREGFLLAQDISSYSLTIVAHEAKKLMPEGGSIVATTYLGGEFAVQNYNVMGVAKASLEANVKYLALDLGPDNIRVNAISAGPIRTLSAKGVGGFNTILKEIEERAPLKRNVDQVEVGKTAAYLLSDLSSGVTGENIHVDSG

> <PDB ID(s) of Target Chain>
3GNS,3GNT,3GR6,4ALI,4ALJ,4ALK,4ALL,4ALM,4ALN,4BNF,4BNG,4BNH,4BNI,4BNJ,4BNK,4BNL,4BNM,4BNN,4CUZ,4CV0,4CV1,4D41,4D42,4D43,4D44,4D45,4FS3,4NZ9,6TBB,6TBC,6YUR

> <UniProt (SwissProt) Recommended Name of Target Chain>
Enoyl-[acyl-carrier-protein] reductase [NADPH] FabI

> <UniProt (SwissProt) Entry Name of Target Chain>
FABI_STAAR

> <UniProt (SwissProt) Primary ID of Target Chain>
Q6GI75

> <UniProt (SwissProt) Secondary ID(s) of Target Chain>


> <UniProt (SwissProt) Alternative ID(s) of Target Chain>


> <UniProt (TrEMBL) Submitted Name of Target Chain>


> <UniProt (TrEMBL) Entry Name of Target Chain>


> <UniProt (TrEMBL) Primary ID of Target Chain>


> <UniProt (TrEMBL) Secondary ID(s) of Target Chain>


> <UniProt (TrEMBL) Alternative ID(s) of Target Chain>


$$$$
BindingDB_50452511_mol_1

Vconf v2.0 Academic SN VC001-00000579
 39 41  0  0  0  0  0  0  0  0999 V2000
    3.8820   -2.7690    0.5980 C   0  0  0  0  0  0  0  0  0  0  0
    3.9560   -1.3620    0.5980 C   0  0  0  0  0  0  0  0  0  0  0
    2.6670   -3.3590    0.6490 N   0  0  0  0  0  0  0  0  0  0  0
    2.7390   -0.6510    0.6440 C   0  0  0  0  0  0  0  0  0  0  0
    1.5570   -1.3200    0.6890 N   0  0  0  0  0  0  0  0  0  0  0
    1.5060   -2.6730    0.6940 C   0  0  0  0  0  0  0  0  0  0  0
    5.0980   -0.7510    0.5450 C   0  0  0  0  0  0  0  0  0  0  0
    4.9680   -3.5860    0.5530 N   0  0  0  0  0  0  0  0  0  0  0
    6.1140   -0.2220    0.4980 N   0  0  0  0  0  0  0  0  0  0  0
    2.7150    0.7040    0.6440 O   0  0  0  0  0  0  0  0  0  0  0
    0.2400   -3.4190    0.7030 C   0  0  0  0  0  0  0  0  0  0  0
    8.1640   -6.2870   -0.5600 N   0  0  0  0  0  0  0  0  0  0  0
    6.1070   -5.7130    0.5270 C   0  0  0  0  0  0  0  0  0  0  0
    4.8150   -5.0040    0.5380 C   0  0  0  0  0  0  0  0  0  0  0
    0.0820   -4.2040   -0.5370 C   0  0  0  0  0  0  0  0  0  0  0
    6.9960   -5.5950   -0.5590 C   0  0  0  0  0  0  0  0  0  0  0
    8.5320   -7.1120    0.4530 C   0  0  0  0  0  0  0  0  0  0  0
    6.4710   -6.5640    1.5890 C   0  0  0  0  0  0  0  0  0  0  0
   -0.1330   -3.5480   -1.7660 C   0  0  0  0  0  0  0  0  0  0  0
    0.1660   -5.6110   -0.5130 C   0  0  0  0  0  0  0  0  0  0  0
    7.6840   -7.2700    1.5600 C   0  0  0  0  0  0  0  0  0  0  0
    0.0380   -6.3510   -1.6990 C   0  0  0  0  0  0  0  0  0  0  0
   -0.2630   -4.2860   -2.9530 C   0  0  0  0  0  0  0  0  0  0  0
   -0.1790   -5.6890   -2.9200 C   0  0  0  0  0  0  0  0  0  0  0
    5.8600   -3.1990    0.5260 H   0  0  0  0  0  0  0  0  0  0  0
    1.8170    1.0930    0.6570 H   0  0  0  0  0  0  0  0  0  0  0
    0.2410   -4.0770    1.5740 H   0  0  0  0  0  0  0  0  0  0  0
   -0.5940   -2.7250    0.8030 H   0  0  0  0  0  0  0  0  0  0  0
    4.2380   -5.3060    1.4160 H   0  0  0  0  0  0  0  0  0  0  0
    4.2510   -5.3000   -0.3490 H   0  0  0  0  0  0  0  0  0  0  0
    6.7580   -4.9990   -1.3520 H   0  0  0  0  0  0  0  0  0  0  0
    9.4160   -7.6210    0.4060 H   0  0  0  0  0  0  0  0  0  0  0
    5.8440   -6.6760    2.3860 H   0  0  0  0  0  0  0  0  0  0  0
   -0.1900   -2.5290   -1.7920 H   0  0  0  0  0  0  0  0  0  0  0
    0.3320   -6.0950    0.3700 H   0  0  0  0  0  0  0  0  0  0  0
    7.9400   -7.8950    2.3270 H   0  0  0  0  0  0  0  0  0  0  0
    0.1060   -7.3680   -1.6730 H   0  0  0  0  0  0  0  0  0  0  0
   -0.4140   -3.8020   -3.8380 H   0  0  0  0  0  0  0  0  0  0  0
   -0.2750   -6.2260   -3.7810 H   0  0  0  0  0  0  0  0  0  0  0
  1  2  1  0  0  0  0
  1  3  2  0  0  0  0
  1  8  1  0  0  0  0
  2  4  2  0  0  0  0
  2  7  1  0  0  0  0
  3  6  1  0  0  0  0
  4  5  1  0  0  0  0
  4 10  1  0  0  0  0
  5  6  2  0  0  0  0
  6 11  1  0  0  0  0
  7  9  3  0  0  0  0
  8 14  1  0  0  0  0
  8 25  1  0  0  0  0
 10 26  1  0  0  0  0
 11 15  1  0  0  0  0
 11 27  1  0  0  0  0
 11 28  1  0  0  0  0
 12 16  1  0  0  0  0
 12 17  2  0  0  0  0
 13 14  1  0  0  0  0
 13 16  2  0  0  0  0
 13 18  1  0  0  0  0
 14 29  1  0  0  0  0
 14 30  1  0  0  0  0
 15 19  2  0  0  0  0
 15 20  1  0  0  0  0
 16 31  1  0  0  0  0
 17 21  1  0  0  0  0
 17 32  1  0  0  0  0
 18 21  2  0  0  0  0
 18 33  1  0  0  0  0
 19 23  1  0  0  0  0
 19 34  1  0  0  0  0
 20 22  2  0  0  0  0
 20 35  1  0  0  0  0
 21 36  1  0  0  0  0
 22 24  1  0  0  0  0
 22 37  1  0  0  0  0
 23 24  2  0  0  0  0
 23 38  1  0  0  0  0
 24 39  1  0  0  0  0
M  END
> <From>
www.bindingDB.org

> <BindingDB Reactant_set_id>
51108810

> <Ligand InChI>
InChI=1S/C19H20ClNO2/c1-23-18-9-5-3-7-16(18)15-10-11-21(13-15)19(22)12-14-6-2-4-8-17(14)20/h2-9,15H,10-13H2,1H3

> <Ligand InChI Key>
LLYPNBGGJXSVQL-UHFFFAOYSA-N

> <BindingDB MonomerID>
50452511

> <BindingDB Ligand Name>
CHEMBL4204517

> <Target Name>
Enoyl-[acyl-carrier-protein] reductase [NADPH] FabI [9-251]

> <Target Source Organism According to Curator or DataSource>
Staphylococcus aureus

> <Ki (nM)>


> <IC50 (nM)>
 500

> <Kd (nM)>


> <EC50 (nM)>


> <kon (M-1-s-1)>


> <koff (s-1)>


> <pH>


> <Temp C>


> <Curation/DataSource>
ChEMBL

> <Article DOI>
10.1016/j.bmc.2017.11.018

> <BindingDB Entry DOI>
10.7270/Q2QF8WF7

> <PMID>
29162308

> <PubChem AID>


> <Patent Number>


> <Authors>
Kwon, J; Mistry, T; Ren, J; Johnson, ME; Mehboob, S

> <Institution>
Novalex Therapeutics

> <Link to Ligand in BindingDB>
http://www.bindingdb.org/bind/chemsearch/marvin/MolStructure.jsp?monomerid=50452511

> <Link to Ligand-Target Pair in BindingDB>
http://www.bindingdb.org/jsp/dbsearch/PrimarySearch_ki.jsp?energyterm=kJ/mole&tag=pol&polymerid=50004708&target=Enoyl-%5Bacyl-carrier-protein%5D+reductase+%5BNADPH%5D+FabI+%5B9-251%5D&column=ki&startPg=0&Increment=50&submit=Search

> <Link to Ligand-Target Pair in BindingDB>
http://www.bindingdb.org/jsp/dbsearch/PrimarySearch_ki.jsp?energyterm=kJ/mole&tag=r21&monomerid=50452511&enzyme=Enoyl-%5Bacyl-carrier-protein%5D+reductase+%5BNADPH%5D+FabI+%5B9-251%5D&column=ki&startPg=0&Increment=50&submit=Search

> <Ligand HET ID in PDB>


> <PDB ID(s) for Ligand-Target Complex>


> <PubChem CID of Ligand>
122243063

> <PubChem SID of Ligand>
433921367

> <ChEBI ID of Ligand>


> <ChEMBL ID of Ligand>


> <DrugBank ID of Ligand>


> <IUPHAR_GRAC ID of Ligand>


> <KEGG ID of Ligand>


> <ZINC ID of Ligand>


> <Number of Protein Chains in Target (bigger than 1 implies a multichain complex)>
1

> <BindingDB Target Chain Sequence>
YVIMGIANKRSIAFGVAKVLDQLGAKLVFTYRKERSRKELEKLLEQLNQPEAHLYQIDVQSDEEVINGFEQIGKDVGNIDGVYHSIAFANMEDLRGRFSETSREGFLLAQDISSYSLTIVAHEAKKLMPEGGSIVATTYLGGEFAVQNYNVMGVAKASLEANVKYLALDLGPDNIRVNAISAGPIRTLSAKGVGGFNTILKEIEERAPLKRNVDQVEVGKTAAYLLSDLSSGVTGENIHVDSG

> <PDB ID(s) of Target Chain>
3GNS,3GNT,3GR6,4ALI,4ALJ,4ALK,4ALL,4ALM,4ALN,4BNF,4BNG,4BNH,4BNI,4BNJ,4BNK,4BNL,4BNM,4BNN,4CUZ,4CV0,4CV1,4D41,4D42,4D43,4D44,4D45,4FS3,4NZ9,6TBB,6TBC,6YUR

> <UniProt (SwissProt) Recommended Name of Target Chain>
Enoyl-[acyl-carrier-protein] reductase [NADPH] FabI

> <UniProt (SwissProt) Entry Name of Target Chain>
FABI_STAAR

> <UniProt (SwissProt) Primary ID of Target Chain>
Q6GI75

> <UniProt (SwissProt) Secondary ID(s) of Target Chain>


> <UniProt (SwissProt) Alternative ID(s) of Target Chain>


> <UniProt (TrEMBL) Submitted Name of Target Chain>


> <UniProt (TrEMBL) Entry Name of Target Chain>


> <UniProt (TrEMBL) Primary ID of Target Chain>


> <UniProt (TrEMBL) Secondary ID(s) of Target Chain>


> <UniProt (TrEMBL) Alternative ID(s) of Target Chain>


$$$$
14

Vconf v2.0 Academic SN VC001-00000579
 43 45  0  0  0  0  0  0  0  0999 V2000
   -3.1180    3.5420    0.4570 C   0  0  0  0  0  0  0  0  0  0  0
   -4.3870    2.9400    0.4020 C   0  0  0  0  0  0  0  0  0  0  0
   -4.5110    1.5410    0.2930 C   0  0  0  0  0  0  0  0  0  0  0
   -3.3440    0.7540    0.2360 C   0  0  0  0  0  0  0  0  0  0  0
   -2.0750    1.3550    0.2920 C   0  0  0  0  0  0  0  0  0  0  0
   -1.9510    2.7580    0.3930 C   0  0  0  0  0  0  0  0  0  0  0
   -3.0230    4.8850    0.5700 O   0  0  0  0  0  0  0  0  0  0  0
   -0.7470    3.4080    0.4770 O   0  0  0  0  0  0  0  0  0  0  0
    0.4280    2.9600   -0.0670 C   0  0  0  0  0  0  0  0  0  0  0
    1.6110    2.9860    0.7030 C   0  0  0  0  0  0  0  0  0  0  0
    0.4860    2.5160   -1.4050 C   0  0  0  0  0  0  0  0  0  0  0
    1.6990    2.0790   -1.9620 C   0  0  0  0  0  0  0  0  0  0  0
    2.8740    2.0940   -1.1880 C   0  0  0  0  0  0  0  0  0  0  0
    2.8280    2.5500    0.1430 C   0  0  0  0  0  0  0  0  0  0  0
    1.5980    3.5280    2.3090 Cl  0  0  0  0  0  0  0  0  0  0  0
    4.3360    1.5670   -1.8570 Cl  0  0  0  0  0  0  0  0  0  0  0
   -5.8470    0.9130    0.2410 C   0  0  0  0  0  0  0  0  0  0  0
   -6.6480    1.0840    1.5520 C   0  0  0  0  0  0  0  0  0  0  0
   -6.8040    0.4800    4.0060 C   0  0  0  0  0  0  0  0  0  0  0
   -8.2330   -0.0410    3.7950 C   0  0  0  0  0  0  0  0  0  0  0
   -8.9050    0.7090    2.6360 C   0  0  0  0  0  0  0  0  0  0  0
   -8.0810    0.5560    1.3480 C   0  0  0  0  0  0  0  0  0  0  0
   -5.9800    0.3270    2.7180 C   0  0  0  0  0  0  0  0  0  0  0
   -5.2230    3.5240    0.4440 H   0  0  0  0  0  0  0  0  0  0  0
   -3.4150   -0.2620    0.1640 H   0  0  0  0  0  0  0  0  0  0  0
   -1.2420    0.7680    0.2640 H   0  0  0  0  0  0  0  0  0  0  0
   -2.1000    5.2150    0.6100 H   0  0  0  0  0  0  0  0  0  0  0
   -0.3590    2.5130   -1.9770 H   0  0  0  0  0  0  0  0  0  0  0
    1.7190    1.7560   -2.9300 H   0  0  0  0  0  0  0  0  0  0  0
    3.6830    2.5640    0.7040 H   0  0  0  0  0  0  0  0  0  0  0
   -6.4090    1.3660   -0.5780 H   0  0  0  0  0  0  0  0  0  0  0
   -5.7580   -0.1550    0.0320 H   0  0  0  0  0  0  0  0  0  0  0
   -6.7100    2.1440    1.8050 H   0  0  0  0  0  0  0  0  0  0  0
   -6.3280   -0.0870    4.8070 H   0  0  0  0  0  0  0  0  0  0  0
   -6.8400    1.5330    4.2910 H   0  0  0  0  0  0  0  0  0  0  0
   -8.8110    0.1130    4.7070 H   0  0  0  0  0  0  0  0  0  0  0
   -8.2010   -1.1080    3.5700 H   0  0  0  0  0  0  0  0  0  0  0
   -8.9910    1.7670    2.8890 H   0  0  0  0  0  0  0  0  0  0  0
   -9.9040    0.3010    2.4750 H   0  0  0  0  0  0  0  0  0  0  0
   -8.0460   -0.4980    1.0670 H   0  0  0  0  0  0  0  0  0  0  0
   -8.5650    1.1200    0.5510 H   0  0  0  0  0  0  0  0  0  0  0
   -5.8970   -0.7310    2.4670 H   0  0  0  0  0  0  0  0  0  0  0
   -4.9820    0.7280    2.8940 H   0  0  0  0  0  0  0  0  0  0  0
  1  2  2  0  0  0  0
  1  6  1  0  0  0  0
  1  7  1  0  0  0  0
  2  3  1  0  0  0  0
  2 24  1  0  0  0  0
  3  4  2  0  0  0  0
  3 17  1  0  0  0  0
  4  5  1  0  0  0  0
  4 25  1  0  0  0  0
  5  6  2  0  0  0  0
  5 26  1  0  0  0  0
  6  8  1  0  0  0  0
  7 27  1  0  0  0  0
  8  9  1  0  0  0  0
  9 10  2  0  0  0  0
  9 11  1  0  0  0  0
 10 14  1  0  0  0  0
 10 15  1  0  0  0  0
 11 12  2  0  0  0  0
 11 28  1  0  0  0  0
 12 13  1  0  0  0  0
 12 29  1  0  0  0  0
 13 14  2  0  0  0  0
 13 16  1  0  0  0  0
 14 30  1  0  0  0  0
 17 18  1  0  0  0  0
 17 31  1  0  0  0  0
 17 32  1  0  0  0  0
 18 22  1  0  0  0  0
 18 23  1  0  0  0  0
 18 33  1  0  0  0  0
 19 20  1  0  0  0  0
 19 23  1  0  0  0  0
 19 34  1  0  0  0  0
 19 35  1  0  0  0  0
 20 21  1  0  0  0  0
 20 36  1  0  0  0  0
 20 37  1  0  0  0  0
 21 22  1  0  0  0  0
 21 38  1  0  0  0  0
 21 39  1  0  0  0  0
 22 40  1  0  0  0  0
 22 41  1  0  0  0  0
 23 42  1  0  0  0  0
 23 43  1  0  0  0  0
M  END
> <From>
www.bindingDB.org

> <BindingDB Reactant_set_id>
46066

> <Ligand InChI>
InChI=1S/C19H20Cl2O2/c20-15-7-9-18(16(21)12-15)23-19-8-6-14(11-17(19)22)10-13-4-2-1-3-5-13/h6-9,11-13,22H,1-5,10H2

> <Ligand InChI Key>
AUJNRGORQMIJCP-UHFFFAOYSA-N

> <BindingDB MonomerID>
25413

> <BindingDB Ligand Name>
5-(cyclohexylmethyl)-2-(2,4-dichlorophenoxy)phenol::Triclosan derivative, 14

> <Target Name>
Enoyl-ACP reductase

> <Target Source Organism According to Curator or DataSource>
Plasmodium falciparum

> <Ki (nM)>


> <IC50 (nM)>
 530

> <Kd (nM)>


> <EC50 (nM)>


> <kon (M-1-s-1)>


> <koff (s-1)>


> <pH>
7.9

> <Temp C>
25.00

> <Curation/DataSource>
Curated from the literature by BindingDB

> <Article DOI>
10.1074/jbc.M701813200

> <BindingDB Entry DOI>
10.7270/Q22V2DFD

> <PMID>
17567585

> <PubChem AID>
aid1798551

> <Patent Number>


> <Authors>
Freundlich, JS; Wang, F; Tsai, HC; Kuo, M; Shieh, HM; Anderson, JW; Nkrumah, LJ; Valderramos, JC; Yu, M; Kumar, TR; Valderramos, SG; Jacobs, WR; Schiehser, GA; Jacobus, DP; Fidock, DA; Sacchettini, JC

> <Institution>
Jacobus Pharmaceutical Company

> <Link to Ligand in BindingDB>
http://www.bindingdb.org/bind/chemsearch/marvin/MolStructure.jsp?monomerid=25413

> <Link to Ligand-Target Pair in BindingDB>
http://www.bindingdb.org/jsp/dbsearch/PrimarySearch_ki.jsp?energyterm=kJ/mole&tag=pol&polymerid=2820&target=Enoyl-ACP+reductase&column=ki&startPg=0&Increment=50&submit=Search

> <Link to Ligand-Target Pair in BindingDB>
http://www.bindingdb.org/jsp/dbsearch/PrimarySearch_ki.jsp?energyterm=kJ/mole&tag=r21&monomerid=25413&enzyme=Enoyl-ACP+reductase&column=ki&startPg=0&Increment=50&submit=Search

> <Ligand HET ID in PDB>
JPL

> <PDB ID(s) for Ligand-Target Complex>
3FNG

> <PubChem CID of Ligand>
25023964

> <PubChem SID of Ligand>
56374552

> <ChEBI ID of Ligand>


> <ChEMBL ID of Ligand>


> <DrugBank ID of Ligand>


> <IUPHAR_GRAC ID of Ligand>


> <KEGG ID of Ligand>


> <ZINC ID of Ligand>
ZINC29061284

> <Number of Protein Chains in Target (bigger than 1 implies a multichain complex)>
1

> <BindingDB Target Chain Sequence>
MNKISQRLLFLFLHFYTTVCFIQNNTQKTFHNVLQNEQIRGKEKAFYRKEKRENIFIGNK
MKHVHNMNNTHNNNHYMEKEEQDASNINKIKEENKNEDICFIAGIGDTNGYGWGIAKELS
KRNVKIIFGIWPPVYNIFMKNYKNGKFDNDMIIDKDKKMNILDMLPFDASFDTANDIDEE
TKNNKRYNMLQNYTIEDVANLIHQKYGKINMLVHSLANAKEVQKDLLNTSRKGYLDALSK
SSYSLISLCKYFVNIMKPQSSIISLTYHASQKVVPGYGGGMSSAKAALESDTRVLAYHLG
RNYNIRINTISAGPLKSRAATAINKLNNTYENNTNQNKNRNRHDVHNIMNNSGEKEEKKI
SASQNYTFIDYAIEYSEKYAPLRQKLLSTDIGSVASFLLSRESRAITGQTIYVDNGLNIM
FLPDDIYRNENE

> <PDB ID(s) of Target Chain>
1NHG,1NHW,1NNU,1UH5,1V35,2FOI,2NQ8,3LSY,3LT0,3LT1,3LT2,3LT4

> <UniProt (SwissProt) Recommended Name of Target Chain>


> <UniProt (SwissProt) Entry Name of Target Chain>


> <UniProt (SwissProt) Primary ID of Target Chain>


> <UniProt (SwissProt) Secondary ID(s) of Target Chain>


> <UniProt (SwissProt) Alternative ID(s) of Target Chain>


> <UniProt (TrEMBL) Submitted Name of Target Chain>
Enoyl-ACP reductase

> <UniProt (TrEMBL) Entry Name of Target Chain>
Q9BJJ9_PLAFA

> <UniProt (TrEMBL) Primary ID of Target Chain>
Q9BJJ9

> <UniProt (TrEMBL) Secondary ID(s) of Target Chain>


> <UniProt (TrEMBL) Alternative ID(s) of Target Chain>


$$$$
28

Vconf v2.0 Academic SN VC001-00000579
 37 39  0  0  0  0  0  0  0  0999 V2000
   -3.0550    3.3380    0.7270 C   0  0  0  0  0  0  0  0  0  0  0
   -4.3190    2.7240    0.7260 C   0  0  0  0  0  0  0  0  0  0  0
   -4.4330    1.3200    0.6630 C   0  0  0  0  0  0  0  0  0  0  0
   -3.2590    0.5420    0.5980 C   0  0  0  0  0  0  0  0  0  0  0
   -1.9950    1.1560    0.6000 C   0  0  0  0  0  0  0  0  0  0  0
   -1.8830    2.5610    0.6530 C   0  0  0  0  0  0  0  0  0  0  0
   -2.9700    4.6850    0.7950 O   0  0  0  0  0  0  0  0  0  0  0
   -0.6820    3.2220    0.6760 O   0  0  0  0  0  0  0  0  0  0  0
    0.4590    2.7920    0.0500 C   0  0  0  0  0  0  0  0  0  0  0
    1.6970    2.8640    0.7270 C   0  0  0  0  0  0  0  0  0  0  0
    0.4300    2.3250   -1.2810 C   0  0  0  0  0  0  0  0  0  0  0
    1.6080    1.9060   -1.9200 C   0  0  0  0  0  0  0  0  0  0  0
    2.8390    1.9600   -1.2380 C   0  0  0  0  0  0  0  0  0  0  0
    2.8790    2.4430    0.0860 C   0  0  0  0  0  0  0  0  0  0  0
    1.7900    3.4430    2.3170 Cl  0  0  0  0  0  0  0  0  0  0  0
   -5.7650    0.6750    0.6540 C   0  0  0  0  0  0  0  0  0  0  0
    3.9300    1.5690   -1.8270 C   0  0  0  0  0  0  0  0  0  0  0
    4.8940    1.2240   -2.3470 N   0  0  0  0  0  0  0  0  0  0  0
   -6.0140   -0.1440    1.8620 C   0  0  0  0  0  0  0  0  0  0  0
   -6.4120   -2.2940    2.9170 C   0  0  0  0  0  0  0  0  0  0  0
   -6.3480   -0.3310    4.2600 C   0  0  0  0  0  0  0  0  0  0  0
   -6.1090    0.4650    3.1300 C   0  0  0  0  0  0  0  0  0  0  0
   -6.1730   -1.5400    1.7580 C   0  0  0  0  0  0  0  0  0  0  0
   -6.4900   -1.6720    4.1190 N   0  0  0  0  0  0  0  0  0  0  0
   -5.1570    3.3030    0.7750 H   0  0  0  0  0  0  0  0  0  0  0
   -3.3230   -0.4760    0.5530 H   0  0  0  0  0  0  0  0  0  0  0
   -1.1570    0.5760    0.5650 H   0  0  0  0  0  0  0  0  0  0  0
   -2.0500    5.0250    0.7960 H   0  0  0  0  0  0  0  0  0  0  0
   -0.4540    2.2890   -1.7890 H   0  0  0  0  0  0  0  0  0  0  0
    1.5570    1.5660   -2.8830 H   0  0  0  0  0  0  0  0  0  0  0
    3.7710    2.4910    0.5860 H   0  0  0  0  0  0  0  0  0  0  0
   -6.5530    1.4290    0.5900 H   0  0  0  0  0  0  0  0  0  0  0
   -5.8360    0.0580   -0.2440 H   0  0  0  0  0  0  0  0  0  0  0
   -6.5260   -3.3060    2.8560 H   0  0  0  0  0  0  0  0  0  0  0
   -6.4150    0.0960    5.1850 H   0  0  0  0  0  0  0  0  0  0  0
   -6.0030    1.4760    3.2300 H   0  0  0  0  0  0  0  0  0  0  0
   -6.1140   -2.0030    0.8510 H   0  0  0  0  0  0  0  0  0  0  0
  1  2  2  0  0  0  0
  1  6  1  0  0  0  0
  1  7  1  0  0  0  0
  2  3  1  0  0  0  0
  2 25  1  0  0  0  0
  3  4  2  0  0  0  0
  3 16  1  0  0  0  0
  4  5  1  0  0  0  0
  4 26  1  0  0  0  0
  5  6  2  0  0  0  0
  5 27  1  0  0  0  0
  6  8  1  0  0  0  0
  7 28  1  0  0  0  0
  8  9  1  0  0  0  0
  9 10  2  0  0  0  0
  9 11  1  0  0  0  0
 10 14  1  0  0  0  0
 10 15  1  0  0  0  0
 11 12  2  0  0  0  0
 11 29  1  0  0  0  0
 12 13  1  0  0  0  0
 12 30  1  0  0  0  0
 13 14  2  0  0  0  0
 13 17  1  0  0  0  0
 14 31  1  0  0  0  0
 16 19  1  0  0  0  0
 16 32  1  0  0  0  0
 16 33  1  0  0  0  0
 17 18  3  0  0  0  0
 19 22  2  0  0  0  0
 19 23  1  0  0  0  0
 20 23  2  0  0  0  0
 20 24  1  0  0  0  0
 20 34  1  0  0  0  0
 21 22  1  0  0  0  0
 21 24  2  0  0  0  0
 21 35  1  0  0  0  0
 22 36  1  0  0  0  0
 23 37  1  0  0  0  0
M  END
> <From>
www.bindingDB.org

> <BindingDB Reactant_set_id>
46080

> <Ligand InChI>
InChI=1S/C19H13ClN2O2/c20-16-10-15(12-21)2-3-18(16)24-19-4-1-14(11-17(19)23)9-13-5-7-22-8-6-13/h1-8,10-11,23H,9H2

> <Ligand InChI Key>
KAOPBNQDJXXGHP-UHFFFAOYSA-N

> <BindingDB MonomerID>
25427

> <BindingDB Ligand Name>
3-chloro-4-[2-hydroxy-4-(pyridin-4-ylmethyl)phenoxy]benzonitrile::Triclosan derivative, 28

> <Target Name>
Enoyl-ACP reductase

> <Target Source Organism According to Curator or DataSource>
Plasmodium falciparum

> <Ki (nM)>


> <IC50 (nM)>
 530

> <Kd (nM)>


> <EC50 (nM)>


> <kon (M-1-s-1)>


> <koff (s-1)>


> <pH>
7.9

> <Temp C>
25.00

> <Curation/DataSource>
Curated from the literature by BindingDB

> <Article DOI>
10.1074/jbc.M701813200

> <BindingDB Entry DOI>
10.7270/Q22V2DFD

> <PMID>
17567585

> <PubChem AID>
aid1798551

> <Patent Number>


> <Authors>
Freundlich, JS; Wang, F; Tsai, HC; Kuo, M; Shieh, HM; Anderson, JW; Nkrumah, LJ; Valderramos, JC; Yu, M; Kumar, TR; Valderramos, SG; Jacobs, WR; Schiehser, GA; Jacobus, DP; Fidock, DA; Sacchettini, JC

> <Institution>
Jacobus Pharmaceutical Company

> <Link to Ligand in BindingDB>
http://www.bindingdb.org/bind/chemsearch/marvin/MolStructure.jsp?monomerid=25427

> <Link to Ligand-Target Pair in BindingDB>
http://www.bindingdb.org/jsp/dbsearch/PrimarySearch_ki.jsp?energyterm=kJ/mole&tag=pol&polymerid=2820&target=Enoyl-ACP+reductase&column=ki&startPg=0&Increment=50&submit=Search

> <Link to Ligand-Target Pair in BindingDB>
http://www.bindingdb.org/jsp/dbsearch/PrimarySearch_ki.jsp?energyterm=kJ/mole&tag=r21&monomerid=25427&enzyme=Enoyl-ACP+reductase&column=ki&startPg=0&Increment=50&submit=Search

> <Ligand HET ID in PDB>


> <PDB ID(s) for Ligand-Target Complex>


> <PubChem CID of Ligand>
25023973

> <PubChem SID of Ligand>
56374566

> <ChEBI ID of Ligand>


> <ChEMBL ID of Ligand>


> <DrugBank ID of Ligand>


> <IUPHAR_GRAC ID of Ligand>


> <KEGG ID of Ligand>


> <ZINC ID of Ligand>
ZINC29060804

> <Number of Protein Chains in Target (bigger than 1 implies a multichain complex)>
1

> <BindingDB Target Chain Sequence>
MNKISQRLLFLFLHFYTTVCFIQNNTQKTFHNVLQNEQIRGKEKAFYRKEKRENIFIGNK
MKHVHNMNNTHNNNHYMEKEEQDASNINKIKEENKNEDICFIAGIGDTNGYGWGIAKELS
KRNVKIIFGIWPPVYNIFMKNYKNGKFDNDMIIDKDKKMNILDMLPFDASFDTANDIDEE
TKNNKRYNMLQNYTIEDVANLIHQKYGKINMLVHSLANAKEVQKDLLNTSRKGYLDALSK
SSYSLISLCKYFVNIMKPQSSIISLTYHASQKVVPGYGGGMSSAKAALESDTRVLAYHLG
RNYNIRINTISAGPLKSRAATAINKLNNTYENNTNQNKNRNRHDVHNIMNNSGEKEEKKI
SASQNYTFIDYAIEYSEKYAPLRQKLLSTDIGSVASFLLSRESRAITGQTIYVDNGLNIM
FLPDDIYRNENE

> <PDB ID(s) of Target Chain>
1NHG,1NHW,1NNU,1UH5,1V35,2FOI,2NQ8,3LSY,3LT0,3LT1,3LT2,3LT4

> <UniProt (SwissProt) Recommended Name of Target Chain>


> <UniProt (SwissProt) Entry Name of Target Chain>


> <UniProt (SwissProt) Primary ID of Target Chain>


> <UniProt (SwissProt) Secondary ID(s) of Target Chain>


> <UniProt (SwissProt) Alternative ID(s) of Target Chain>


> <UniProt (TrEMBL) Submitted Name of Target Chain>
Enoyl-ACP reductase

> <UniProt (TrEMBL) Entry Name of Target Chain>
Q9BJJ9_PLAFA

> <UniProt (TrEMBL) Primary ID of Target Chain>
Q9BJJ9

> <UniProt (TrEMBL) Secondary ID(s) of Target Chain>


> <UniProt (TrEMBL) Alternative ID(s) of Target Chain>


$$$$
26

Vconf v2.0 Academic SN VC001-00000579
 36 38  0  0  0  0  0  0  0  0999 V2000
   -2.9230    3.0380    0.8120 C   0  0  0  0  0  0  0  0  0  0  0
   -4.1210    2.3080    0.7480 C   0  0  0  0  0  0  0  0  0  0  0
   -4.0990    0.9120    0.5590 C   0  0  0  0  0  0  0  0  0  0  0
   -2.8550    0.2570    0.4510 C   0  0  0  0  0  0  0  0  0  0  0
   -1.6560    0.9870    0.5180 C   0  0  0  0  0  0  0  0  0  0  0
   -1.6810    2.3880    0.6840 C   0  0  0  0  0  0  0  0  0  0  0
   -2.9700    4.3760    0.9940 O   0  0  0  0  0  0  0  0  0  0  0
   -0.5510    3.1590    0.7750 O   0  0  0  0  0  0  0  0  0  0  0
    0.6480    2.8830    0.1690 C   0  0  0  0  0  0  0  0  0  0  0
    1.8500    3.0700    0.8870 C   0  0  0  0  0  0  0  0  0  0  0
    0.7100    2.4650   -1.1770 C   0  0  0  0  0  0  0  0  0  0  0
    1.9470    2.2110   -1.7920 C   0  0  0  0  0  0  0  0  0  0  0
    3.1410    2.3840   -1.0700 C   0  0  0  0  0  0  0  0  0  0  0
    3.0900    2.8160    0.2690 C   0  0  0  0  0  0  0  0  0  0  0
    1.8320    3.5930    2.4990 Cl  0  0  0  0  0  0  0  0  0  0  0
   -5.3610    0.1420    0.4910 C   0  0  0  0  0  0  0  0  0  0  0
    4.6320    2.0800   -1.8090 Cl  0  0  0  0  0  0  0  0  0  0  0
   -5.5880   -0.4620   -0.8350 C   0  0  0  0  0  0  0  0  0  0  0
   -5.8080   -2.4500   -2.1400 C   0  0  0  0  0  0  0  0  0  0  0
   -6.0250   -1.6980   -3.3040 C   0  0  0  0  0  0  0  0  0  0  0
   -6.0240   -0.2970   -3.2150 C   0  0  0  0  0  0  0  0  0  0  0
   -5.8070    0.3310   -1.9790 C   0  0  0  0  0  0  0  0  0  0  0
   -5.6000   -1.8140   -0.9590 N   0  0  0  0  0  0  0  0  0  0  0
   -5.0130    2.7970    0.8370 H   0  0  0  0  0  0  0  0  0  0  0
   -2.8210   -0.7560    0.3260 H   0  0  0  0  0  0  0  0  0  0  0
   -0.7660    0.4940    0.4470 H   0  0  0  0  0  0  0  0  0  0  0
   -2.0870    4.8030    1.0340 H   0  0  0  0  0  0  0  0  0  0  0
   -0.1490    2.3470   -1.7150 H   0  0  0  0  0  0  0  0  0  0  0
    1.9690    1.9030   -2.7660 H   0  0  0  0  0  0  0  0  0  0  0
    3.9580    2.9470    0.7930 H   0  0  0  0  0  0  0  0  0  0  0
   -5.3230   -0.6480    1.2430 H   0  0  0  0  0  0  0  0  0  0  0
   -6.2140    0.7810    0.7260 H   0  0  0  0  0  0  0  0  0  0  0
   -5.8070   -3.4690   -2.1790 H   0  0  0  0  0  0  0  0  0  0  0
   -6.1820   -2.1610   -4.2000 H   0  0  0  0  0  0  0  0  0  0  0
   -6.1800    0.2660   -4.0520 H   0  0  0  0  0  0  0  0  0  0  0
   -5.8080    1.3500   -1.9120 H   0  0  0  0  0  0  0  0  0  0  0
  1  2  2  0  0  0  0
  1  6  1  0  0  0  0
  1  7  1  0  0  0  0
  2  3  1  0  0  0  0
  2 24  1  0  0  0  0
  3  4  2  0  0  0  0
  3 16  1  0  0  0  0
  4  5  1  0  0  0  0
  4 25  1  0  0  0  0
  5  6  2  0  0  0  0
  5 26  1  0  0  0  0
  6  8  1  0  0  0  0
  7 27  1  0  0  0  0
  8  9  1  0  0  0  0
  9 10  2  0  0  0  0
  9 11  1  0  0  0  0
 10 14  1  0  0  0  0
 10 15  1  0  0  0  0
 11 12  2  0  0  0  0
 11 28  1  0  0  0  0
 12 13  1  0  0  0  0
 12 29  1  0  0  0  0
 13 14  2  0  0  0  0
 13 17  1  0  0  0  0
 14 30  1  0  0  0  0
 16 18  1  0  0  0  0
 16 31  1  0  0  0  0
 16 32  1  0  0  0  0
 18 22  2  0  0  0  0
 18 23  1  0  0  0  0
 19 20  1  0  0  0  0
 19 23  2  0  0  0  0
 19 33  1  0  0  0  0
 20 21  2  0  0  0  0
 20 34  1  0  0  0  0
 21 22  1  0  0  0  0
 21 35  1  0  0  0  0
 22 36  1  0  0  0  0
M  END
> <From>
www.bindingDB.org

> <BindingDB Reactant_set_id>
46078

> <Ligand InChI>
InChI=1S/C18H13Cl2NO2/c19-13-5-7-17(15(20)11-13)23-18-6-4-12(10-16(18)22)9-14-3-1-2-8-21-14/h1-8,10-11,22H,9H2

> <Ligand InChI Key>
AOVDSWPGWPRTSR-UHFFFAOYSA-N

> <BindingDB MonomerID>
25425

> <BindingDB Ligand Name>
2-(2,4-dichlorophenoxy)-5-(pyridin-2-ylmethyl)phenol::Triclosan derivative, 26

> <Target Name>
Enoyl-ACP reductase

> <Target Source Organism According to Curator or DataSource>
Plasmodium falciparum

> <Ki (nM)>


> <IC50 (nM)>
 640

> <Kd (nM)>


> <EC50 (nM)>


> <kon (M-1-s-1)>


> <koff (s-1)>


> <pH>
7.9

> <Temp C>
25.00

> <Curation/DataSource>
Curated from the literature by BindingDB

> <Article DOI>
10.1074/jbc.M701813200

> <BindingDB Entry DOI>
10.7270/Q22V2DFD

> <PMID>
17567585

> <PubChem AID>
aid1798551

> <Patent Number>


> <Authors>
Freundlich, JS; Wang, F; Tsai, HC; Kuo, M; Shieh, HM; Anderson, JW; Nkrumah, LJ; Valderramos, JC; Yu, M; Kumar, TR; Valderramos, SG; Jacobs, WR; Schiehser, GA; Jacobus, DP; Fidock, DA; Sacchettini, JC

> <Institution>
Jacobus Pharmaceutical Company

> <Link to Ligand in BindingDB>
http://www.bindingdb.org/bind/chemsearch/marvin/MolStructure.jsp?monomerid=25425

> <Link to Ligand-Target Pair in BindingDB>
http://www.bindingdb.org/jsp/dbsearch/PrimarySearch_ki.jsp?energyterm=kJ/mole&tag=pol&polymerid=2820&target=Enoyl-ACP+reductase&column=ki&startPg=0&Increment=50&submit=Search

> <Link to Ligand-Target Pair in BindingDB>
http://www.bindingdb.org/jsp/dbsearch/PrimarySearch_ki.jsp?energyterm=kJ/mole&tag=r21&monomerid=25425&enzyme=Enoyl-ACP+reductase&column=ki&startPg=0&Increment=50&submit=Search

> <Ligand HET ID in PDB>
8PC

> <PDB ID(s) for Ligand-Target Complex>
2OP1,3FNE

> <PubChem CID of Ligand>
16220130

> <PubChem SID of Ligand>
56374564

> <ChEBI ID of Ligand>


> <ChEMBL ID of Ligand>


> <DrugBank ID of Ligand>
DB07287

> <IUPHAR_GRAC ID of Ligand>


> <KEGG ID of Ligand>


> <ZINC ID of Ligand>
ZINC29060814

> <Number of Protein Chains in Target (bigger than 1 implies a multichain complex)>
1

> <BindingDB Target Chain Sequence>
MNKISQRLLFLFLHFYTTVCFIQNNTQKTFHNVLQNEQIRGKEKAFYRKEKRENIFIGNK
MKHVHNMNNTHNNNHYMEKEEQDASNINKIKEENKNEDICFIAGIGDTNGYGWGIAKELS
KRNVKIIFGIWPPVYNIFMKNYKNGKFDNDMIIDKDKKMNILDMLPFDASFDTANDIDEE
TKNNKRYNMLQNYTIEDVANLIHQKYGKINMLVHSLANAKEVQKDLLNTSRKGYLDALSK
SSYSLISLCKYFVNIMKPQSSIISLTYHASQKVVPGYGGGMSSAKAALESDTRVLAYHLG
RNYNIRINTISAGPLKSRAATAINKLNNTYENNTNQNKNRNRHDVHNIMNNSGEKEEKKI
SASQNYTFIDYAIEYSEKYAPLRQKLLSTDIGSVASFLLSRESRAITGQTIYVDNGLNIM
FLPDDIYRNENE

> <PDB ID(s) of Target Chain>
1NHG,1NHW,1NNU,1UH5,1V35,2FOI,2NQ8,3LSY,3LT0,3LT1,3LT2,3LT4

> <UniProt (SwissProt) Recommended Name of Target Chain>


> <UniProt (SwissProt) Entry Name of Target Chain>


> <UniProt (SwissProt) Primary ID of Target Chain>


> <UniProt (SwissProt) Secondary ID(s) of Target Chain>


> <UniProt (SwissProt) Alternative ID(s) of Target Chain>


> <UniProt (TrEMBL) Submitted Name of Target Chain>
Enoyl-ACP reductase

> <UniProt (TrEMBL) Entry Name of Target Chain>
Q9BJJ9_PLAFA

> <UniProt (TrEMBL) Primary ID of Target Chain>
Q9BJJ9

> <UniProt (TrEMBL) Secondary ID(s) of Target Chain>


> <UniProt (TrEMBL) Alternative ID(s) of Target Chain>


$$$$
23

Vconf v2.0 Academic SN VC001-00000579
 34 36  0  0  0  0  0  0  0  0999 V2000
   -2.7400    2.9000    0.2970 C   0  0  0  0  0  0  0  0  0  0  0
   -3.9280    2.2350   -0.0470 C   0  0  0  0  0  0  0  0  0  0  0
   -4.3330    1.0530    0.6220 C   0  0  0  0  0  0  0  0  0  0  0
   -3.4860    0.5650    1.6460 C   0  0  0  0  0  0  0  0  0  0  0
   -2.2970    1.2290    1.9940 C   0  0  0  0  0  0  0  0  0  0  0
   -1.9200    2.4120    1.3290 C   0  0  0  0  0  0  0  0  0  0  0
   -2.3880    4.0220   -0.3690 O   0  0  0  0  0  0  0  0  0  0  0
   -0.7660    3.0960    1.6090 O   0  0  0  0  0  0  0  0  0  0  0
   -0.2190    3.2220    2.8590 C   0  0  0  0  0  0  0  0  0  0  0
    1.1780    3.0940    3.0260 C   0  0  0  0  0  0  0  0  0  0  0
   -1.0190    3.5280    3.9810 C   0  0  0  0  0  0  0  0  0  0  0
   -0.4440    3.6800    5.2530 C   0  0  0  0  0  0  0  0  0  0  0
    0.9470    3.5370    5.4200 C   0  0  0  0  0  0  0  0  0  0  0
    1.7550    3.2460    4.3030 C   0  0  0  0  0  0  0  0  0  0  0
    2.1860    2.7500    1.7090 Cl  0  0  0  0  0  0  0  0  0  0  0
   -5.5340    0.3520    0.2960 C   0  0  0  0  0  0  0  0  0  0  0
   -6.5180    0.8430   -0.5950 C   0  0  0  0  0  0  0  0  0  0  0
   -7.6700    0.0840   -0.8580 C   0  0  0  0  0  0  0  0  0  0  0
   -7.8520   -1.1610   -0.2400 C   0  0  0  0  0  0  0  0  0  0  0
   -6.8660   -1.6250    0.6410 C   0  0  0  0  0  0  0  0  0  0  0
   -5.7680   -0.8630    0.8680 N   0  0  0  0  0  0  0  0  0  0  0
    1.4800    3.6790    6.5980 C   0  0  0  0  0  0  0  0  0  0  0
    1.9500    3.8040    7.6380 N   0  0  0  0  0  0  0  0  0  0  0
   -4.4900    2.6260   -0.8020 H   0  0  0  0  0  0  0  0  0  0  0
   -3.7280   -0.2870    2.1550 H   0  0  0  0  0  0  0  0  0  0  0
   -1.7060    0.8460    2.7320 H   0  0  0  0  0  0  0  0  0  0  0
   -1.5430    4.4170   -0.0650 H   0  0  0  0  0  0  0  0  0  0  0
   -2.0270    3.6440    3.8700 H   0  0  0  0  0  0  0  0  0  0  0
   -1.0480    3.8980    6.0490 H   0  0  0  0  0  0  0  0  0  0  0
    2.7670    3.1440    4.4160 H   0  0  0  0  0  0  0  0  0  0  0
   -6.4170    1.7480   -1.0540 H   0  0  0  0  0  0  0  0  0  0  0
   -8.3770    0.4400   -1.5010 H   0  0  0  0  0  0  0  0  0  0  0
   -8.6870   -1.7180   -0.4260 H   0  0  0  0  0  0  0  0  0  0  0
   -6.9720   -2.5260    1.1060 H   0  0  0  0  0  0  0  0  0  0  0
  1  2  2  0  0  0  0
  1  6  1  0  0  0  0
  1  7  1  0  0  0  0
  2  3  1  0  0  0  0
  2 24  1  0  0  0  0
  3  4  2  0  0  0  0
  3 16  1  0  0  0  0
  4  5  1  0  0  0  0
  4 25  1  0  0  0  0
  5  6  2  0  0  0  0
  5 26  1  0  0  0  0
  6  8  1  0  0  0  0
  7 27  1  0  0  0  0
  8  9  1  0  0  0  0
  9 10  2  0  0  0  0
  9 11  1  0  0  0  0
 10 14  1  0  0  0  0
 10 15  1  0  0  0  0
 11 12  2  0  0  0  0
 11 28  1  0  0  0  0
 12 13  1  0  0  0  0
 12 29  1  0  0  0  0
 13 14  2  0  0  0  0
 13 22  1  0  0  0  0
 14 30  1  0  0  0  0
 16 17  1  0  0  0  0
 16 21  2  0  0  0  0
 17 18  2  0  0  0  0
 17 31  1  0  0  0  0
 18 19  1  0  0  0  0
 18 32  1  0  0  0  0
 19 20  2  0  0  0  0
 19 33  1  0  0  0  0
 20 21  1  0  0  0  0
 20 34  1  0  0  0  0
 22 23  3  0  0  0  0
M  END
> <From>
www.bindingDB.org

> <BindingDB Reactant_set_id>
46075

> <Ligand InChI>
InChI=1S/C18H11ClN2O2/c19-14-9-12(11-20)4-6-17(14)23-18-7-5-13(10-16(18)22)15-3-1-2-8-21-15/h1-10,22H

> <Ligand InChI Key>
CSJXWYZNRAVKKT-UHFFFAOYSA-N

> <BindingDB MonomerID>
25422

> <BindingDB Ligand Name>
3-chloro-4-[2-hydroxy-4-(pyridin-2-yl)phenoxy]benzonitrile::Triclosan derivative, 23

> <Target Name>
Enoyl-ACP reductase

> <Target Source Organism According to Curator or DataSource>
Plasmodium falciparum

> <Ki (nM)>


> <IC50 (nM)>
 700

> <Kd (nM)>


> <EC50 (nM)>


> <kon (M-1-s-1)>


> <koff (s-1)>


> <pH>
7.9

> <Temp C>
25.00

> <Curation/DataSource>
Curated from the literature by BindingDB

> <Article DOI>
10.1074/jbc.M701813200

> <BindingDB Entry DOI>
10.7270/Q22V2DFD

> <PMID>
17567585

> <PubChem AID>
aid1798551

> <Patent Number>


> <Authors>
Freundlich, JS; Wang, F; Tsai, HC; Kuo, M; Shieh, HM; Anderson, JW; Nkrumah, LJ; Valderramos, JC; Yu, M; Kumar, TR; Valderramos, SG; Jacobs, WR; Schiehser, GA; Jacobus, DP; Fidock, DA; Sacchettini, JC

> <Institution>
Jacobus Pharmaceutical Company

> <Link to Ligand in BindingDB>
http://www.bindingdb.org/bind/chemsearch/marvin/MolStructure.jsp?monomerid=25422

> <Link to Ligand-Target Pair in BindingDB>
http://www.bindingdb.org/jsp/dbsearch/PrimarySearch_ki.jsp?energyterm=kJ/mole&tag=pol&polymerid=2820&target=Enoyl-ACP+reductase&column=ki&startPg=0&Increment=50&submit=Search

> <Link to Ligand-Target Pair in BindingDB>
http://www.bindingdb.org/jsp/dbsearch/PrimarySearch_ki.jsp?energyterm=kJ/mole&tag=r21&monomerid=25422&enzyme=Enoyl-ACP+reductase&column=ki&startPg=0&Increment=50&submit=Search

> <Ligand HET ID in PDB>


> <PDB ID(s) for Ligand-Target Complex>
2OP0

> <PubChem CID of Ligand>
16220129

> <PubChem SID of Ligand>
56374561

> <ChEBI ID of Ligand>


> <ChEMBL ID of Ligand>


> <DrugBank ID of Ligand>


> <IUPHAR_GRAC ID of Ligand>


> <KEGG ID of Ligand>


> <ZINC ID of Ligand>
ZINC29060894

> <Number of Protein Chains in Target (bigger than 1 implies a multichain complex)>
1

> <BindingDB Target Chain Sequence>
MNKISQRLLFLFLHFYTTVCFIQNNTQKTFHNVLQNEQIRGKEKAFYRKEKRENIFIGNK
MKHVHNMNNTHNNNHYMEKEEQDASNINKIKEENKNEDICFIAGIGDTNGYGWGIAKELS
KRNVKIIFGIWPPVYNIFMKNYKNGKFDNDMIIDKDKKMNILDMLPFDASFDTANDIDEE
TKNNKRYNMLQNYTIEDVANLIHQKYGKINMLVHSLANAKEVQKDLLNTSRKGYLDALSK
SSYSLISLCKYFVNIMKPQSSIISLTYHASQKVVPGYGGGMSSAKAALESDTRVLAYHLG
RNYNIRINTISAGPLKSRAATAINKLNNTYENNTNQNKNRNRHDVHNIMNNSGEKEEKKI
SASQNYTFIDYAIEYSEKYAPLRQKLLSTDIGSVASFLLSRESRAITGQTIYVDNGLNIM
FLPDDIYRNENE

> <PDB ID(s) of Target Chain>
1NHG,1NHW,1NNU,1UH5,1V35,2FOI,2NQ8,3LSY,3LT0,3LT1,3LT2,3LT4

> <UniProt (SwissProt) Recommended Name of Target Chain>


> <UniProt (SwissProt) Entry Name of Target Chain>


> <UniProt (SwissProt) Primary ID of Target Chain>


> <UniProt (SwissProt) Secondary ID(s) of Target Chain>


> <UniProt (SwissProt) Alternative ID(s) of Target Chain>


> <UniProt (TrEMBL) Submitted Name of Target Chain>
Enoyl-ACP reductase

> <UniProt (TrEMBL) Entry Name of Target Chain>
Q9BJJ9_PLAFA

> <UniProt (TrEMBL) Primary ID of Target Chain>
Q9BJJ9

> <UniProt (TrEMBL) Secondary ID(s) of Target Chain>


> <UniProt (TrEMBL) Alternative ID(s) of Target Chain>


$$$$
BindingDB_50280897_3D

Vconf v2.1
 50 54  0  0  0  0  0  0  0  0999 V2000
    3.8340   -9.9990    1.2170 C   0  0  0  0  0  0  0  0  0  0  0
    3.5700   -9.1090    0.1720 C   0  0  0  0  0  0  0  0  0  0  0
    4.9670  -11.2560    0.8310 S   0  0  0  0  0  0  0  0  0  0  0
    5.0860  -10.5830   -0.7580 C   0  0  0  0  0  0  0  0  0  0  0
    4.2950   -9.4490   -0.9690 C   0  0  0  0  0  0  0  0  0  0  0
    4.3040   -8.8050   -2.2220 C   0  0  0  0  0  0  0  0  0  0  0
    5.1140   -9.3160   -3.2540 C   0  0  0  0  0  0  0  0  0  0  0
    5.9080  -10.4590   -3.0350 C   0  0  0  0  0  0  0  0  0  0  0
    5.8970  -11.0990   -1.7820 C   0  0  0  0  0  0  0  0  0  0  0
   -0.1740  -14.4800    1.7650 C   0  0  0  0  0  0  0  0  0  0  0
   -0.0580  -14.6330    0.3670 C   0  0  0  0  0  0  0  0  0  0  0
   -0.7290  -15.6190   -0.2770 N   0  0  0  0  0  0  0  0  0  0  0
   -1.0140  -15.3920    2.4440 C   0  0  0  0  0  0  0  0  0  0  0
   -1.7010  -16.4060    1.7530 C   0  0  0  0  0  0  0  0  0  0  0
   -1.5360  -16.5000    0.3590 C   0  0  0  0  0  0  0  0  0  0  0
   -2.1590  -17.4480   -0.3720 N   0  0  0  0  0  0  0  0  0  0  0
   -2.9800  -18.3750    0.1600 C   0  0  0  0  0  0  0  0  0  0  0
   -3.2740  -18.4290    1.6020 C   0  0  0  0  0  0  0  0  0  0  0
   -2.5750  -17.3520    2.4730 C   0  0  0  0  0  0  0  0  0  0  0
   -3.5070  -19.2140   -0.6020 O   0  0  0  0  0  0  0  0  0  0  0
    0.5460  -13.4360    2.3990 C   0  0  0  0  0  0  0  0  0  0  0
    0.5330  -13.1590    3.7710 C   0  0  0  0  0  0  0  0  0  0  0
    1.2630  -12.1090    4.3480 C   0  0  0  0  0  0  0  0  0  0  0
    2.0450  -11.2260    3.5970 N   0  0  0  0  0  0  0  0  0  0  0
    1.2280  -11.9550    5.5880 O   0  0  0  0  0  0  0  0  0  0  0
    3.4880  -11.0110    3.5730 C   0  0  0  0  0  0  0  0  0  0  0
    3.2150   -9.8960    2.5480 C   0  0  0  0  0  0  0  0  0  0  0
    1.7050  -10.1760    2.6410 C   0  0  0  0  0  0  0  0  0  0  0
    2.6420   -7.9710    0.3020 C   0  0  0  0  0  0  0  0  0  0  0
    3.7340   -7.9770   -2.3920 H   0  0  0  0  0  0  0  0  0  0  0
    5.1270   -8.8550   -4.1650 H   0  0  0  0  0  0  0  0  0  0  0
    6.4920  -10.8240   -3.7880 H   0  0  0  0  0  0  0  0  0  0  0
    6.4720  -11.9260   -1.6190 H   0  0  0  0  0  0  0  0  0  0  0
    0.5340  -14.0040   -0.1780 H   0  0  0  0  0  0  0  0  0  0  0
   -1.1360  -15.3280    3.4540 H   0  0  0  0  0  0  0  0  0  0  0
   -2.0070  -17.4650   -1.3290 H   0  0  0  0  0  0  0  0  0  0  0
   -2.9800  -19.4130    1.9690 H   0  0  0  0  0  0  0  0  0  0  0
   -4.3530  -18.3290    1.7300 H   0  0  0  0  0  0  0  0  0  0  0
   -1.9770  -17.8650    3.2280 H   0  0  0  0  0  0  0  0  0  0  0
   -3.3480  -16.7800    2.9870 H   0  0  0  0  0  0  0  0  0  0  0
    1.1260  -12.8390    1.8060 H   0  0  0  0  0  0  0  0  0  0  0
   -0.0190  -13.7430    4.3990 H   0  0  0  0  0  0  0  0  0  0  0
    4.0600  -11.8780    3.2440 H   0  0  0  0  0  0  0  0  0  0  0
    3.9070  -10.6720    4.5210 H   0  0  0  0  0  0  0  0  0  0  0
    3.4900   -8.9160    2.9400 H   0  0  0  0  0  0  0  0  0  0  0
    1.2110  -10.5190    1.7310 H   0  0  0  0  0  0  0  0  0  0  0
    1.1140   -9.3580    3.0550 H   0  0  0  0  0  0  0  0  0  0  0
    2.5900   -7.3890   -0.6170 H   0  0  0  0  0  0  0  0  0  0  0
    1.6430   -8.3400    0.5350 H   0  0  0  0  0  0  0  0  0  0  0
    2.9780   -7.3180    1.1080 H   0  0  0  0  0  0  0  0  0  0  0
  1  2  2  0  0  0  0
  1  3  1  0  0  0  0
  1 27  1  0  0  0  0
  2  5  1  0  0  0  0
  2 29  1  0  0  0  0
  3  4  1  0  0  0  0
  4  5  2  0  0  0  0
  4  9  1  0  0  0  0
  5  6  1  0  0  0  0
  6  7  2  0  0  0  0
  6 30  1  0  0  0  0
  7  8  1  0  0  0  0
  7 31  1  0  0  0  0
  8  9  2  0  0  0  0
  8 32  1  0  0  0  0
  9 33  1  0  0  0  0
 10 11  2  0  0  0  0
 10 13  1  0  0  0  0
 10 21  1  0  0  0  0
 11 12  1  0  0  0  0
 11 34  1  0  0  0  0
 12 15  2  0  0  0  0
 13 14  2  0  0  0  0
 13 35  1  0  0  0  0
 14 15  1  0  0  0  0
 14 19  1  0  0  0  0
 15 16  1  0  0  0  0
 16 17  1  0  0  0  0
 16 36  1  0  0  0  0
 17 18  1  0  0  0  0
 17 20  2  0  0  0  0
 18 19  1  0  0  0  0
 18 37  1  0  0  0  0
 18 38  1  0  0  0  0
 19 39  1  0  0  0  0
 19 40  1  0  0  0  0
 21 22  2  0  0  0  0
 21 41  1  0  0  0  0
 22 23  1  0  0  0  0
 22 42  1  0  0  0  0
 23 24  1  0  0  0  0
 23 25  2  0  0  0  0
 24 26  1  0  0  0  0
 24 28  1  0  0  0  0
 26 27  1  0  0  0  0
 26 43  1  0  0  0  0
 26 44  1  0  0  0  0
 27 28  1  0  0  0  0
 27 45  1  0  0  0  0
 28 46  1  0  0  0  0
 28 47  1  0  0  0  0
 29 48  1  0  0  0  0
 29 49  1  0  0  0  0
 29 50  1  0  0  0  0
M  END
> <From>
www.bindingDB.org

> <BindingDB Reactant_set_id>
50280897

> <Ligand InChI>
InChI=1S/C23H21N3O2S/c1-14-18-4-2-3-5-19(18)29-22(14)17-12-26(13-17)21(28)9-6-15-10-16-7-8-20(27)25-23(16)24-11-15/h2-6,9-11,17H,7-8,12-13H2,1H3,(H,24,25,27)/b9-6+

> <Ligand InChI Key>
AFINXHDSKJHHKG-RMKNXTFCSA-N

> <BindingDB MonomerID>
50052231

> <BindingDB Ligand Name>
CHEMBL3322717

> <Target Name>
Enoyl-[acyl-carrier-protein] reductase [NADPH] FabI [9-251]

> <Target Source Organism According to Curator or DataSource>
Staphylococcus aureus

> <Ki (nM)>


> <IC50 (nM)>
 709

> <Kd (nM)>


> <EC50 (nM)>


> <kon (M-1-s-1)>


> <koff (s-1)>


> <pH>


> <Temp C>


> <Curation/DataSource>
ChEMBL

> <Article DOI>
10.1016/j.ejmech.2014.07.036

> <BindingDB Entry DOI>
10.7270/Q2CJ8G45

> <PMID>
25036796

> <PubChem AID>


> <Patent Number>


> <Authors>
Takhi, M; Sreenivas, K; Reddy, CK; Munikumar, M; Praveena, K; Sudheer, P; Rao, BN; Ramakanth, G; Sivaranjani, J; Mulik, S; Reddy, YR; Narasimha Rao, K; Pallavi, R; Lakshminarasimhan, A; Panigrahi, SK; Antony, T; Abdullah, I; Lee, YK; Ramachandra, M; Yusof, R; Rahman, NA; Subramanya, H

> <Institution>
Aurigene Discovery Technologies Ltd

> <Link to Ligand in BindingDB>
http://www.bindingdb.org/bind/chemsearch/marvin/MolStructure.jsp?monomerid=50052231

> <Link to Ligand-Target Pair in BindingDB>
http://www.bindingdb.org/jsp/dbsearch/PrimarySearch_ki.jsp?energyterm=kJ/mole&tag=pol&polymerid=50004708&target=Enoyl-%5Bacyl-carrier-protein%5D+reductase+%5BNADPH%5D+FabI+%5B9-251%5D&column=ki&startPg=0&Increment=50&submit=Search

> <Link to Ligand-Target Pair in BindingDB>
http://www.bindingdb.org/jsp/dbsearch/PrimarySearch_ki.jsp?energyterm=kJ/mole&tag=r21&monomerid=50052231&enzyme=Enoyl-%5Bacyl-carrier-protein%5D+reductase+%5BNADPH%5D+FabI+%5B9-251%5D&column=ki&startPg=0&Increment=50&submit=Search

> <Ligand HET ID in PDB>


> <PDB ID(s) for Ligand-Target Complex>


> <PubChem CID of Ligand>
118710283

> <PubChem SID of Ligand>
103949127

> <ChEBI ID of Ligand>


> <ChEMBL ID of Ligand>
CHEMBL3322717

> <DrugBank ID of Ligand>


> <IUPHAR_GRAC ID of Ligand>


> <KEGG ID of Ligand>


> <ZINC ID of Ligand>
ZINC13756973

> <Number of Protein Chains in Target (bigger than 1 implies a multichain complex)>
1

> <BindingDB Target Chain Sequence>
YVIMGIANKRSIAFGVAKVLDQLGAKLVFTYRKERSRKELEKLLEQLNQPEAHLYQIDVQSDEEVINGFEQIGKDVGNIDGVYHSIAFANMEDLRGRFSETSREGFLLAQDISSYSLTIVAHEAKKLMPEGGSIVATTYLGGEFAVQNYNVMGVAKASLEANVKYLALDLGPDNIRVNAISAGPIRTLSAKGVGGFNTILKEIEERAPLKRNVDQVEVGKTAAYLLSDLSSGVTGENIHVDSG

> <PDB ID(s) of Target Chain>
3GNS,3GNT,3GR6,4ALI,4ALJ,4ALK,4ALL,4ALM,4ALN,4BNF,4BNG,4BNH,4BNI,4BNJ,4BNK,4BNL,4BNM,4BNN,4CUZ,4CV0,4CV1,4D41,4D42,4D43,4D44,4D45,4FS3,4NZ9,6TBB,6TBC,6YUR

> <UniProt (SwissProt) Recommended Name of Target Chain>
Enoyl-[acyl-carrier-protein] reductase [NADPH] FabI

> <UniProt (SwissProt) Entry Name of Target Chain>
FABI_STAAR

> <UniProt (SwissProt) Primary ID of Target Chain>
Q6GI75

> <UniProt (SwissProt) Secondary ID(s) of Target Chain>


> <UniProt (SwissProt) Alternative ID(s) of Target Chain>


> <UniProt (TrEMBL) Submitted Name of Target Chain>


> <UniProt (TrEMBL) Entry Name of Target Chain>


> <UniProt (TrEMBL) Primary ID of Target Chain>


> <UniProt (TrEMBL) Secondary ID(s) of Target Chain>


> <UniProt (TrEMBL) Alternative ID(s) of Target Chain>


$$$$
27

Vconf v2.0 Academic SN VC001-00000579
 36 38  0  0  0  0  0  0  0  0999 V2000
   -2.9920    3.0670    0.8820 C   0  0  0  0  0  0  0  0  0  0  0
   -4.1460    2.2650    0.8590 C   0  0  0  0  0  0  0  0  0  0  0
   -4.0480    0.8760    0.6410 C   0  0  0  0  0  0  0  0  0  0  0
   -2.7730    0.3000    0.4680 C   0  0  0  0  0  0  0  0  0  0  0
   -1.6190    1.1010    0.4930 C   0  0  0  0  0  0  0  0  0  0  0
   -1.7210    2.4960    0.6830 C   0  0  0  0  0  0  0  0  0  0  0
   -3.1100    4.3970    1.0910 O   0  0  0  0  0  0  0  0  0  0  0
   -0.6340    3.3290    0.7230 O   0  0  0  0  0  0  0  0  0  0  0
    0.5080    3.1600   -0.0160 C   0  0  0  0  0  0  0  0  0  0  0
    1.7660    3.3910    0.5830 C   0  0  0  0  0  0  0  0  0  0  0
    0.4530    2.8010   -1.3800 C   0  0  0  0  0  0  0  0  0  0  0
    1.6310    2.6460   -2.1290 C   0  0  0  0  0  0  0  0  0  0  0
    2.8820    2.8620   -1.5250 C   0  0  0  0  0  0  0  0  0  0  0
    2.9470    3.2370   -0.1700 C   0  0  0  0  0  0  0  0  0  0  0
    1.8880    3.8480    2.2100 Cl  0  0  0  0  0  0  0  0  0  0  0
   -5.2620    0.0300    0.6090 C   0  0  0  0  0  0  0  0  0  0  0
    4.3020    2.6750   -2.4260 Cl  0  0  0  0  0  0  0  0  0  0  0
   -5.5050   -0.5660   -0.7240 C   0  0  0  0  0  0  0  0  0  0  0
   -5.9820   -1.6580   -3.2580 C   0  0  0  0  0  0  0  0  0  0  0
   -5.6690   -2.5140   -2.1910 C   0  0  0  0  0  0  0  0  0  0  0
   -5.4330   -1.9590   -0.9230 C   0  0  0  0  0  0  0  0  0  0  0
   -5.8280    0.2430   -1.8320 C   0  0  0  0  0  0  0  0  0  0  0
   -6.0520   -0.3210   -3.0450 N   0  0  0  0  0  0  0  0  0  0  0
   -5.0600    2.6970    0.9970 H   0  0  0  0  0  0  0  0  0  0  0
   -2.6820   -0.7060    0.3220 H   0  0  0  0  0  0  0  0  0  0  0
   -0.7040    0.6670    0.3710 H   0  0  0  0  0  0  0  0  0  0  0
   -2.2530    4.8740    1.0990 H   0  0  0  0  0  0  0  0  0  0  0
   -0.4500    2.6520   -1.8320 H   0  0  0  0  0  0  0  0  0  0  0
    1.5680    2.3800   -3.1130 H   0  0  0  0  0  0  0  0  0  0  0
    3.8560    3.3980    0.2680 H   0  0  0  0  0  0  0  0  0  0  0
   -5.1500   -0.7540    1.3610 H   0  0  0  0  0  0  0  0  0  0  0
   -6.1420    0.6170    0.8820 H   0  0  0  0  0  0  0  0  0  0  0
   -6.1570   -2.0390   -4.1880 H   0  0  0  0  0  0  0  0  0  0  0
   -5.6130   -3.5230   -2.3350 H   0  0  0  0  0  0  0  0  0  0  0
   -5.2040   -2.5750   -0.1420 H   0  0  0  0  0  0  0  0  0  0  0
   -5.8940    1.2550   -1.7260 H   0  0  0  0  0  0  0  0  0  0  0
  1  2  2  0  0  0  0
  1  6  1  0  0  0  0
  1  7  1  0  0  0  0
  2  3  1  0  0  0  0
  2 24  1  0  0  0  0
  3  4  2  0  0  0  0
  3 16  1  0  0  0  0
  4  5  1  0  0  0  0
  4 25  1  0  0  0  0
  5  6  2  0  0  0  0
  5 26  1  0  0  0  0
  6  8  1  0  0  0  0
  7 27  1  0  0  0  0
  8  9  1  0  0  0  0
  9 10  2  0  0  0  0
  9 11  1  0  0  0  0
 10 14  1  0  0  0  0
 10 15  1  0  0  0  0
 11 12  2  0  0  0  0
 11 28  1  0  0  0  0
 12 13  1  0  0  0  0
 12 29  1  0  0  0  0
 13 14  2  0  0  0  0
 13 17  1  0  0  0  0
 14 30  1  0  0  0  0
 16 18  1  0  0  0  0
 16 31  1  0  0  0  0
 16 32  1  0  0  0  0
 18 21  2  0  0  0  0
 18 22  1  0  0  0  0
 19 20  2  0  0  0  0
 19 23  1  0  0  0  0
 19 33  1  0  0  0  0
 20 21  1  0  0  0  0
 20 34  1  0  0  0  0
 21 35  1  0  0  0  0
 22 23  2  0  0  0  0
 22 36  1  0  0  0  0
M  END
> <From>
www.bindingDB.org

> <BindingDB Reactant_set_id>
46079

> <Ligand InChI>
InChI=1S/C18H13Cl2NO2/c19-14-4-6-17(15(20)10-14)23-18-5-3-12(9-16(18)22)8-13-2-1-7-21-11-13/h1-7,9-11,22H,8H2

> <Ligand InChI Key>
WAXFANKFAQHYIV-UHFFFAOYSA-N

> <BindingDB MonomerID>
25426

> <BindingDB Ligand Name>
2-(2,4-dichlorophenoxy)-5-(pyridin-3-ylmethyl)phenol::Triclosan derivative, 27

> <Target Name>
Enoyl-ACP reductase

> <Target Source Organism According to Curator or DataSource>
Plasmodium falciparum

> <Ki (nM)>


> <IC50 (nM)>
 840

> <Kd (nM)>


> <EC50 (nM)>


> <kon (M-1-s-1)>


> <koff (s-1)>


> <pH>
7.9

> <Temp C>
25.00

> <Curation/DataSource>
Curated from the literature by BindingDB

> <Article DOI>
10.1074/jbc.M701813200

> <BindingDB Entry DOI>
10.7270/Q22V2DFD

> <PMID>
17567585

> <PubChem AID>
aid1798551

> <Patent Number>


> <Authors>
Freundlich, JS; Wang, F; Tsai, HC; Kuo, M; Shieh, HM; Anderson, JW; Nkrumah, LJ; Valderramos, JC; Yu, M; Kumar, TR; Valderramos, SG; Jacobs, WR; Schiehser, GA; Jacobus, DP; Fidock, DA; Sacchettini, JC

> <Institution>
Jacobus Pharmaceutical Company

> <Link to Ligand in BindingDB>
http://www.bindingdb.org/bind/chemsearch/marvin/MolStructure.jsp?monomerid=25426

> <Link to Ligand-Target Pair in BindingDB>
http://www.bindingdb.org/jsp/dbsearch/PrimarySearch_ki.jsp?energyterm=kJ/mole&tag=pol&polymerid=2820&target=Enoyl-ACP+reductase&column=ki&startPg=0&Increment=50&submit=Search

> <Link to Ligand-Target Pair in BindingDB>
http://www.bindingdb.org/jsp/dbsearch/PrimarySearch_ki.jsp?energyterm=kJ/mole&tag=r21&monomerid=25426&enzyme=Enoyl-ACP+reductase&column=ki&startPg=0&Increment=50&submit=Search

> <Ligand HET ID in PDB>


> <PDB ID(s) for Ligand-Target Complex>


> <PubChem CID of Ligand>
25023972

> <PubChem SID of Ligand>
56374565

> <ChEBI ID of Ligand>


> <ChEMBL ID of Ligand>


> <DrugBank ID of Ligand>


> <IUPHAR_GRAC ID of Ligand>


> <KEGG ID of Ligand>


> <ZINC ID of Ligand>
ZINC29060819

> <Number of Protein Chains in Target (bigger than 1 implies a multichain complex)>
1

> <BindingDB Target Chain Sequence>
MNKISQRLLFLFLHFYTTVCFIQNNTQKTFHNVLQNEQIRGKEKAFYRKEKRENIFIGNK
MKHVHNMNNTHNNNHYMEKEEQDASNINKIKEENKNEDICFIAGIGDTNGYGWGIAKELS
KRNVKIIFGIWPPVYNIFMKNYKNGKFDNDMIIDKDKKMNILDMLPFDASFDTANDIDEE
TKNNKRYNMLQNYTIEDVANLIHQKYGKINMLVHSLANAKEVQKDLLNTSRKGYLDALSK
SSYSLISLCKYFVNIMKPQSSIISLTYHASQKVVPGYGGGMSSAKAALESDTRVLAYHLG
RNYNIRINTISAGPLKSRAATAINKLNNTYENNTNQNKNRNRHDVHNIMNNSGEKEEKKI
SASQNYTFIDYAIEYSEKYAPLRQKLLSTDIGSVASFLLSRESRAITGQTIYVDNGLNIM
FLPDDIYRNENE

> <PDB ID(s) of Target Chain>
1NHG,1NHW,1NNU,1UH5,1V35,2FOI,2NQ8,3LSY,3LT0,3LT1,3LT2,3LT4

> <UniProt (SwissProt) Recommended Name of Target Chain>


> <UniProt (SwissProt) Entry Name of Target Chain>


> <UniProt (SwissProt) Primary ID of Target Chain>


> <UniProt (SwissProt) Secondary ID(s) of Target Chain>


> <UniProt (SwissProt) Alternative ID(s) of Target Chain>


> <UniProt (TrEMBL) Submitted Name of Target Chain>
Enoyl-ACP reductase

> <UniProt (TrEMBL) Entry Name of Target Chain>
Q9BJJ9_PLAFA

> <UniProt (TrEMBL) Primary ID of Target Chain>
Q9BJJ9

> <UniProt (TrEMBL) Secondary ID(s) of Target Chain>


> <UniProt (TrEMBL) Alternative ID(s) of Target Chain>


$$$$
BindingDB_50280911_3D

Vconf v2.1
 55 59  0  0  0  0  0  0  0  0999 V2000
   20.5700    0.3080    0.4330 C   0  0  0  0  0  0  0  0  0  0  0
   20.4490   -1.0970    0.3900 C   0  0  0  0  0  0  0  0  0  0  0
   21.5530   -1.8840    0.4070 N   0  0  0  0  0  0  0  0  0  0  0
   21.8790    0.8370    0.4910 C   0  0  0  0  0  0  0  0  0  0  0
   23.0020   -0.0060    0.5060 C   0  0  0  0  0  0  0  0  0  0  0
   22.8190   -1.3970    0.4630 C   0  0  0  0  0  0  0  0  0  0  0
   19.3920    1.0960    0.4140 C   0  0  0  0  0  0  0  0  0  0  0
   19.3510    2.4940    0.4680 C   0  0  0  0  0  0  0  0  0  0  0
   18.1530    3.2250    0.4430 C   0  0  0  0  0  0  0  0  0  0  0
   16.9010    2.6170    0.3160 N   0  0  0  0  0  0  0  0  0  0  0
   18.1970    4.4700    0.5460 O   0  0  0  0  0  0  0  0  0  0  0
   16.2540    1.9330   -0.8010 C   0  0  0  0  0  0  0  0  0  0  0
   15.0510    1.7360    0.1380 C   0  0  0  0  0  0  0  0  0  0  0
   15.7820    2.5150    1.2460 C   0  0  0  0  0  0  0  0  0  0  0
   14.6530    0.3580    0.4560 C   0  0  0  0  0  0  0  0  0  0  0
   13.6870   -0.0070    1.3960 C   0  0  0  0  0  0  0  0  0  0  0
   15.1850   -0.7470   -0.1270 O   0  0  0  0  0  0  0  0  0  0  0
   14.5730   -1.8170    0.4270 C   0  0  0  0  0  0  0  0  0  0  0
   13.6420   -1.3950    1.3740 C   0  0  0  0  0  0  0  0  0  0  0
   12.8700   -2.3200    2.0980 C   0  0  0  0  0  0  0  0  0  0  0
   13.0600   -3.6930    1.8440 C   0  0  0  0  0  0  0  0  0  0  0
   14.0030   -4.1220    0.8840 C   0  0  0  0  0  0  0  0  0  0  0
   14.7700   -3.1820    0.1660 C   0  0  0  0  0  0  0  0  0  0  0
   12.8970    0.9090    2.2280 C   0  0  0  0  0  0  0  0  0  0  0
   23.9170   -2.1930    0.4790 N   0  0  0  0  0  0  0  0  0  0  0
   23.9340   -3.5470    0.4380 C   0  0  0  0  0  0  0  0  0  0  0
   25.2290   -4.2360    0.4720 C   0  0  0  0  0  0  0  0  0  0  0
   22.8940   -4.2420    0.3790 O   0  0  0  0  0  0  0  0  0  0  0
   26.0390   -3.8660   -0.6360 N   0  0  0  0  0  0  0  0  0  0  0
   26.4540   -4.6740   -1.6200 C   0  0  0  0  0  0  0  0  0  0  0
   27.2200   -3.8860   -2.4560 C   0  0  0  0  0  0  0  0  0  0  0
   27.2290   -2.6540   -1.9310 N   0  0  0  0  0  0  0  0  0  0  0
   26.5180   -2.6770   -0.8460 N   0  0  0  0  0  0  0  0  0  0  0
   19.5300   -1.5400    0.3460 H   0  0  0  0  0  0  0  0  0  0  0
   22.0330    1.8440    0.5220 H   0  0  0  0  0  0  0  0  0  0  0
   23.9400    0.3930    0.5470 H   0  0  0  0  0  0  0  0  0  0  0
   18.4980    0.6020    0.3650 H   0  0  0  0  0  0  0  0  0  0  0
   20.2200    3.0230    0.5420 H   0  0  0  0  0  0  0  0  0  0  0
   16.7630    1.0380   -1.1590 H   0  0  0  0  0  0  0  0  0  0  0
   16.0600    2.5720   -1.6640 H   0  0  0  0  0  0  0  0  0  0  0
   14.1540    2.2410   -0.2220 H   0  0  0  0  0  0  0  0  0  0  0
   16.0080    1.9750    2.1670 H   0  0  0  0  0  0  0  0  0  0  0
   15.3280    3.4700    1.5140 H   0  0  0  0  0  0  0  0  0  0  0
   12.1890   -2.0090    2.7910 H   0  0  0  0  0  0  0  0  0  0  0
   12.5120   -4.3830    2.3580 H   0  0  0  0  0  0  0  0  0  0  0
   14.1310   -5.1190    0.7100 H   0  0  0  0  0  0  0  0  0  0  0
   15.4520   -3.4870   -0.5290 H   0  0  0  0  0  0  0  0  0  0  0
   12.2110    0.3550    2.8700 H   0  0  0  0  0  0  0  0  0  0  0
   13.5650    1.5010    2.8540 H   0  0  0  0  0  0  0  0  0  0  0
   12.3210    1.5770    1.5870 H   0  0  0  0  0  0  0  0  0  0  0
   24.7790   -1.7510    0.5180 H   0  0  0  0  0  0  0  0  0  0  0
   25.7480   -3.9720    1.3940 H   0  0  0  0  0  0  0  0  0  0  0
   25.0580   -5.3150    0.4720 H   0  0  0  0  0  0  0  0  0  0  0
   26.2460   -5.6670   -1.7320 H   0  0  0  0  0  0  0  0  0  0  0
   27.6910   -4.1850   -3.3100 H   0  0  0  0  0  0  0  0  0  0  0
  1  2  2  0  0  0  0
  1  4  1  0  0  0  0
  1  7  1  0  0  0  0
  2  3  1  0  0  0  0
  2 34  1  0  0  0  0
  3  6  2  0  0  0  0
  4  5  2  0  0  0  0
  4 35  1  0  0  0  0
  5  6  1  0  0  0  0
  5 36  1  0  0  0  0
  6 25  1  0  0  0  0
  7  8  2  0  0  0  0
  7 37  1  0  0  0  0
  8  9  1  0  0  0  0
  8 38  1  0  0  0  0
  9 10  1  0  0  0  0
  9 11  2  0  0  0  0
 10 12  1  0  0  0  0
 10 14  1  0  0  0  0
 12 13  1  0  0  0  0
 12 39  1  0  0  0  0
 12 40  1  0  0  0  0
 13 14  1  0  0  0  0
 13 15  1  0  0  0  0
 13 41  1  0  0  0  0
 14 42  1  0  0  0  0
 14 43  1  0  0  0  0
 15 16  2  0  0  0  0
 15 17  1  0  0  0  0
 16 19  1  0  0  0  0
 16 24  1  0  0  0  0
 17 18  1  0  0  0  0
 18 19  2  0  0  0  0
 18 23  1  0  0  0  0
 19 20  1  0  0  0  0
 20 21  2  0  0  0  0
 20 44  1  0  0  0  0
 21 22  1  0  0  0  0
 21 45  1  0  0  0  0
 22 23  2  0  0  0  0
 22 46  1  0  0  0  0
 23 47  1  0  0  0  0
 24 48  1  0  0  0  0
 24 49  1  0  0  0  0
 24 50  1  0  0  0  0
 25 26  1  0  0  0  0
 25 51  1  0  0  0  0
 26 27  1  0  0  0  0
 26 28  2  0  0  0  0
 27 29  1  0  0  0  0
 27 52  1  0  0  0  0
 27 53  1  0  0  0  0
 29 30  1  0  0  0  0
 29 33  1  0  0  0  0
 30 31  2  0  0  0  0
 30 54  1  0  0  0  0
 31 32  1  0  0  0  0
 31 55  1  0  0  0  0
 32 33  2  0  0  0  0
M  END
> <From>
www.bindingDB.org

> <BindingDB Reactant_set_id>
50280911

> <Ligand InChI>
InChI=1S/C24H22N6O3/c1-16-19-4-2-3-5-20(19)33-24(16)18-13-29(14-18)23(32)9-7-17-6-8-21(25-12-17)27-22(31)15-30-11-10-26-28-30/h2-12,18H,13-15H2,1H3,(H,25,27,31)/b9-7+

> <Ligand InChI Key>
JIDDMPJWOMPWAX-VQHVLOKHSA-N

> <BindingDB MonomerID>
50052238

> <BindingDB Ligand Name>
CHEMBL3322725

> <Target Name>
Enoyl-[acyl-carrier-protein] reductase [NADPH] FabI [9-251]

> <Target Source Organism According to Curator or DataSource>
Staphylococcus aureus

> <Ki (nM)>


> <IC50 (nM)>
 843

> <Kd (nM)>


> <EC50 (nM)>


> <kon (M-1-s-1)>


> <koff (s-1)>


> <pH>


> <Temp C>


> <Curation/DataSource>
ChEMBL

> <Article DOI>
10.1016/j.ejmech.2014.07.036

> <BindingDB Entry DOI>
10.7270/Q2CJ8G45

> <PMID>
25036796

> <PubChem AID>


> <Patent Number>


> <Authors>
Takhi, M; Sreenivas, K; Reddy, CK; Munikumar, M; Praveena, K; Sudheer, P; Rao, BN; Ramakanth, G; Sivaranjani, J; Mulik, S; Reddy, YR; Narasimha Rao, K; Pallavi, R; Lakshminarasimhan, A; Panigrahi, SK; Antony, T; Abdullah, I; Lee, YK; Ramachandra, M; Yusof, R; Rahman, NA; Subramanya, H

> <Institution>
Aurigene Discovery Technologies Ltd

> <Link to Ligand in BindingDB>
http://www.bindingdb.org/bind/chemsearch/marvin/MolStructure.jsp?monomerid=50052238

> <Link to Ligand-Target Pair in BindingDB>
http://www.bindingdb.org/jsp/dbsearch/PrimarySearch_ki.jsp?energyterm=kJ/mole&tag=pol&polymerid=50004708&target=Enoyl-%5Bacyl-carrier-protein%5D+reductase+%5BNADPH%5D+FabI+%5B9-251%5D&column=ki&startPg=0&Increment=50&submit=Search

> <Link to Ligand-Target Pair in BindingDB>
http://www.bindingdb.org/jsp/dbsearch/PrimarySearch_ki.jsp?energyterm=kJ/mole&tag=r21&monomerid=50052238&enzyme=Enoyl-%5Bacyl-carrier-protein%5D+reductase+%5BNADPH%5D+FabI+%5B9-251%5D&column=ki&startPg=0&Increment=50&submit=Search

> <Ligand HET ID in PDB>


> <PDB ID(s) for Ligand-Target Complex>


> <PubChem CID of Ligand>
118710290

> <PubChem SID of Ligand>
103949134

> <ChEBI ID of Ligand>


> <ChEMBL ID of Ligand>
CHEMBL3322725

> <DrugBank ID of Ligand>


> <IUPHAR_GRAC ID of Ligand>


> <KEGG ID of Ligand>


> <ZINC ID of Ligand>
ZINC13757015

> <Number of Protein Chains in Target (bigger than 1 implies a multichain complex)>
1

> <BindingDB Target Chain Sequence>
YVIMGIANKRSIAFGVAKVLDQLGAKLVFTYRKERSRKELEKLLEQLNQPEAHLYQIDVQSDEEVINGFEQIGKDVGNIDGVYHSIAFANMEDLRGRFSETSREGFLLAQDISSYSLTIVAHEAKKLMPEGGSIVATTYLGGEFAVQNYNVMGVAKASLEANVKYLALDLGPDNIRVNAISAGPIRTLSAKGVGGFNTILKEIEERAPLKRNVDQVEVGKTAAYLLSDLSSGVTGENIHVDSG

> <PDB ID(s) of Target Chain>
3GNS,3GNT,3GR6,4ALI,4ALJ,4ALK,4ALL,4ALM,4ALN,4BNF,4BNG,4BNH,4BNI,4BNJ,4BNK,4BNL,4BNM,4BNN,4CUZ,4CV0,4CV1,4D41,4D42,4D43,4D44,4D45,4FS3,4NZ9,6TBB,6TBC,6YUR

> <UniProt (SwissProt) Recommended Name of Target Chain>
Enoyl-[acyl-carrier-protein] reductase [NADPH] FabI

> <UniProt (SwissProt) Entry Name of Target Chain>
FABI_STAAR

> <UniProt (SwissProt) Primary ID of Target Chain>
Q6GI75

> <UniProt (SwissProt) Secondary ID(s) of Target Chain>


> <UniProt (SwissProt) Alternative ID(s) of Target Chain>


> <UniProt (TrEMBL) Submitted Name of Target Chain>


> <UniProt (TrEMBL) Entry Name of Target Chain>


> <UniProt (TrEMBL) Primary ID of Target Chain>


> <UniProt (TrEMBL) Secondary ID(s) of Target Chain>


> <UniProt (TrEMBL) Alternative ID(s) of Target Chain>


$$$$
BindingDB_50280892_3D

Vconf v2.1
 51 54  0  0  0  0  0  0  0  0999 V2000
   23.2290  -11.6610   -0.1590 C   0  0  0  0  0  0  0  0  0  0  0
   23.3990  -12.5570    0.9200 C   0  0  0  0  0  0  0  0  0  0  0
   24.0370  -13.7390    0.7380 N   0  0  0  0  0  0  0  0  0  0  0
   23.7580  -12.0520   -1.4070 C   0  0  0  0  0  0  0  0  0  0  0
   24.4070  -13.2880   -1.5750 C   0  0  0  0  0  0  0  0  0  0  0
   24.5390  -14.1320   -0.4570 C   0  0  0  0  0  0  0  0  0  0  0
   25.1550  -15.3290   -0.5360 N   0  0  0  0  0  0  0  0  0  0  0
   25.6740  -15.8230   -1.6780 C   0  0  0  0  0  0  0  0  0  0  0
   25.6020  -15.0910   -2.9550 C   0  0  0  0  0  0  0  0  0  0  0
   24.9410  -13.6900   -2.8910 C   0  0  0  0  0  0  0  0  0  0  0
   26.2200  -16.9470   -1.6500 O   0  0  0  0  0  0  0  0  0  0  0
   22.5600  -10.4150   -0.0610 C   0  0  0  0  0  0  0  0  0  0  0
   21.9880   -9.8900    1.1040 C   0  0  0  0  0  0  0  0  0  0  0
   21.3130   -8.6610    1.1380 C   0  0  0  0  0  0  0  0  0  0  0
   21.1620   -7.8500    0.0090 N   0  0  0  0  0  0  0  0  0  0  0
   20.8030   -8.2770    2.2130 O   0  0  0  0  0  0  0  0  0  0  0
   22.1150   -7.0670   -0.7730 C   0  0  0  0  0  0  0  0  0  0  0
   20.9280   -6.7260   -1.6860 C   0  0  0  0  0  0  0  0  0  0  0
   19.9690   -7.4580   -0.7350 C   0  0  0  0  0  0  0  0  0  0  0
   21.0230   -7.2980   -3.1080 C   0  0  0  0  0  0  0  0  0  0  0
   21.2040   -8.7160   -3.0370 O   0  0  0  0  0  0  0  0  0  0  0
   21.3600   -9.5000   -4.1420 C   0  0  0  0  0  0  0  0  0  0  0
   21.3990  -10.8900   -3.9350 C   0  0  0  0  0  0  0  0  0  0  0
   21.5830  -11.7680   -5.0160 C   0  0  0  0  0  0  0  0  0  0  0
   21.7220  -11.2660   -6.3240 C   0  0  0  0  0  0  0  0  0  0  0
   21.6740   -9.8740   -6.5360 C   0  0  0  0  0  0  0  0  0  0  0
   21.4940   -8.9960   -5.4520 C   0  0  0  0  0  0  0  0  0  0  0
   21.9160  -12.2000   -7.4430 C   0  0  0  0  0  0  0  0  0  0  0
   23.0430  -12.3360    1.8490 H   0  0  0  0  0  0  0  0  0  0  0
   23.6700  -11.4340   -2.2160 H   0  0  0  0  0  0  0  0  0  0  0
   25.2240  -15.8650    0.2680 H   0  0  0  0  0  0  0  0  0  0  0
   25.0440  -15.7060   -3.6620 H   0  0  0  0  0  0  0  0  0  0  0
   26.6180  -14.9760   -3.3350 H   0  0  0  0  0  0  0  0  0  0  0
   24.1230  -13.6700   -3.6140 H   0  0  0  0  0  0  0  0  0  0  0
   25.6810  -12.9500   -3.1990 H   0  0  0  0  0  0  0  0  0  0  0
   22.4810   -9.8580   -0.9140 H   0  0  0  0  0  0  0  0  0  0  0
   22.0460  -10.4160    1.9760 H   0  0  0  0  0  0  0  0  0  0  0
   22.5440   -6.2180   -0.2400 H   0  0  0  0  0  0  0  0  0  0  0
   22.9310   -7.6220   -1.2380 H   0  0  0  0  0  0  0  0  0  0  0
   20.7360   -5.6570   -1.7810 H   0  0  0  0  0  0  0  0  0  0  0
   19.3960   -8.2820   -1.1650 H   0  0  0  0  0  0  0  0  0  0  0
   19.2820   -6.8150   -0.1840 H   0  0  0  0  0  0  0  0  0  0  0
   20.1030   -7.0670   -3.6470 H   0  0  0  0  0  0  0  0  0  0  0
   21.8700   -6.8330   -3.6160 H   0  0  0  0  0  0  0  0  0  0  0
   21.2980  -11.2650   -2.9920 H   0  0  0  0  0  0  0  0  0  0  0
   21.6160  -12.7740   -4.8490 H   0  0  0  0  0  0  0  0  0  0  0
   21.7720   -9.4950   -7.4780 H   0  0  0  0  0  0  0  0  0  0  0
   21.4650   -7.9910   -5.6230 H   0  0  0  0  0  0  0  0  0  0  0
   22.0130  -11.6670   -8.3900 H   0  0  0  0  0  0  0  0  0  0  0
   22.8210  -12.7860   -7.2760 H   0  0  0  0  0  0  0  0  0  0  0
   21.0600  -12.8740   -7.5070 H   0  0  0  0  0  0  0  0  0  0  0
  1  2  2  0  0  0  0
  1  4  1  0  0  0  0
  1 12  1  0  0  0  0
  2  3  1  0  0  0  0
  2 29  1  0  0  0  0
  3  6  2  0  0  0  0
  4  5  2  0  0  0  0
  4 30  1  0  0  0  0
  5  6  1  0  0  0  0
  5 10  1  0  0  0  0
  6  7  1  0  0  0  0
  7  8  1  0  0  0  0
  7 31  1  0  0  0  0
  8  9  1  0  0  0  0
  8 11  2  0  0  0  0
  9 10  1  0  0  0  0
  9 32  1  0  0  0  0
  9 33  1  0  0  0  0
 10 34  1  0  0  0  0
 10 35  1  0  0  0  0
 12 13  2  0  0  0  0
 12 36  1  0  0  0  0
 13 14  1  0  0  0  0
 13 37  1  0  0  0  0
 14 15  1  0  0  0  0
 14 16  2  0  0  0  0
 15 17  1  0  0  0  0
 15 19  1  0  0  0  0
 17 18  1  0  0  0  0
 17 38  1  0  0  0  0
 17 39  1  0  0  0  0
 18 19  1  0  0  0  0
 18 20  1  0  0  0  0
 18 40  1  0  0  0  0
 19 41  1  0  0  0  0
 19 42  1  0  0  0  0
 20 21  1  0  0  0  0
 20 43  1  0  0  0  0
 20 44  1  0  0  0  0
 21 22  1  0  0  0  0
 22 23  2  0  0  0  0
 22 27  1  0  0  0  0
 23 24  1  0  0  0  0
 23 45  1  0  0  0  0
 24 25  2  0  0  0  0
 24 46  1  0  0  0  0
 25 26  1  0  0  0  0
 25 28  1  0  0  0  0
 26 27  2  0  0  0  0
 26 47  1  0  0  0  0
 27 48  1  0  0  0  0
 28 49  1  0  0  0  0
 28 50  1  0  0  0  0
 28 51  1  0  0  0  0
M  END
> <From>
www.bindingDB.org

> <BindingDB Reactant_set_id>
50280892

> <Ligand InChI>
InChI=1S/C22H23N3O3/c1-15-2-6-19(7-3-15)28-14-17-12-25(13-17)21(27)9-4-16-10-18-5-8-20(26)24-22(18)23-11-16/h2-4,6-7,9-11,17H,5,8,12-14H2,1H3,(H,23,24,26)/b9-4+

> <Ligand InChI Key>
TYBGSVIOIISSMW-RUDMXATFSA-N

> <BindingDB MonomerID>
50052228

> <BindingDB Ligand Name>
CHEMBL3322712

> <Target Name>
Enoyl-[acyl-carrier-protein] reductase [NADPH] FabI [9-251]

> <Target Source Organism According to Curator or DataSource>
Staphylococcus aureus

> <Ki (nM)>


> <IC50 (nM)>
 921

> <Kd (nM)>


> <EC50 (nM)>


> <kon (M-1-s-1)>


> <koff (s-1)>


> <pH>


> <Temp C>


> <Curation/DataSource>
ChEMBL

> <Article DOI>
10.1016/j.ejmech.2014.07.036

> <BindingDB Entry DOI>
10.7270/Q2CJ8G45

> <PMID>
25036796

> <PubChem AID>


> <Patent Number>


> <Authors>
Takhi, M; Sreenivas, K; Reddy, CK; Munikumar, M; Praveena, K; Sudheer, P; Rao, BN; Ramakanth, G; Sivaranjani, J; Mulik, S; Reddy, YR; Narasimha Rao, K; Pallavi, R; Lakshminarasimhan, A; Panigrahi, SK; Antony, T; Abdullah, I; Lee, YK; Ramachandra, M; Yusof, R; Rahman, NA; Subramanya, H

> <Institution>
Aurigene Discovery Technologies Ltd

> <Link to Ligand in BindingDB>
http://www.bindingdb.org/bind/chemsearch/marvin/MolStructure.jsp?monomerid=50052228

> <Link to Ligand-Target Pair in BindingDB>
http://www.bindingdb.org/jsp/dbsearch/PrimarySearch_ki.jsp?energyterm=kJ/mole&tag=pol&polymerid=50004708&target=Enoyl-%5Bacyl-carrier-protein%5D+reductase+%5BNADPH%5D+FabI+%5B9-251%5D&column=ki&startPg=0&Increment=50&submit=Search

> <Link to Ligand-Target Pair in BindingDB>
http://www.bindingdb.org/jsp/dbsearch/PrimarySearch_ki.jsp?energyterm=kJ/mole&tag=r21&monomerid=50052228&enzyme=Enoyl-%5Bacyl-carrier-protein%5D+reductase+%5BNADPH%5D+FabI+%5B9-251%5D&column=ki&startPg=0&Increment=50&submit=Search

> <Ligand HET ID in PDB>


> <PDB ID(s) for Ligand-Target Complex>


> <PubChem CID of Ligand>
118710278

> <PubChem SID of Ligand>
103949124

> <ChEBI ID of Ligand>


> <ChEMBL ID of Ligand>
CHEMBL3322712

> <DrugBank ID of Ligand>


> <IUPHAR_GRAC ID of Ligand>


> <KEGG ID of Ligand>


> <ZINC ID of Ligand>
ZINC13756988

> <Number of Protein Chains in Target (bigger than 1 implies a multichain complex)>
1

> <BindingDB Target Chain Sequence>
YVIMGIANKRSIAFGVAKVLDQLGAKLVFTYRKERSRKELEKLLEQLNQPEAHLYQIDVQSDEEVINGFEQIGKDVGNIDGVYHSIAFANMEDLRGRFSETSREGFLLAQDISSYSLTIVAHEAKKLMPEGGSIVATTYLGGEFAVQNYNVMGVAKASLEANVKYLALDLGPDNIRVNAISAGPIRTLSAKGVGGFNTILKEIEERAPLKRNVDQVEVGKTAAYLLSDLSSGVTGENIHVDSG

> <PDB ID(s) of Target Chain>
3GNS,3GNT,3GR6,4ALI,4ALJ,4ALK,4ALL,4ALM,4ALN,4BNF,4BNG,4BNH,4BNI,4BNJ,4BNK,4BNL,4BNM,4BNN,4CUZ,4CV0,4CV1,4D41,4D42,4D43,4D44,4D45,4FS3,4NZ9,6TBB,6TBC,6YUR

> <UniProt (SwissProt) Recommended Name of Target Chain>
Enoyl-[acyl-carrier-protein] reductase [NADPH] FabI

> <UniProt (SwissProt) Entry Name of Target Chain>
FABI_STAAR

> <UniProt (SwissProt) Primary ID of Target Chain>
Q6GI75

> <UniProt (SwissProt) Secondary ID(s) of Target Chain>


> <UniProt (SwissProt) Alternative ID(s) of Target Chain>


> <UniProt (TrEMBL) Submitted Name of Target Chain>


> <UniProt (TrEMBL) Entry Name of Target Chain>


> <UniProt (TrEMBL) Primary ID of Target Chain>


> <UniProt (TrEMBL) Secondary ID(s) of Target Chain>


> <UniProt (TrEMBL) Alternative ID(s) of Target Chain>


$$$$
BindingDB_50452501_mol_1

Vconf v2.0 Academic SN VC001-00000579
 32 33  0  0  0  0  0  0  0  0999 V2000
    3.7390   -2.8530    0.5990 C   0  0  0  0  0  0  0  0  0  0  0
    3.9590   -1.4610    0.5730 C   0  0  0  0  0  0  0  0  0  0  0
    2.4700   -3.3310    0.6480 N   0  0  0  0  0  0  0  0  0  0  0
    2.8190   -0.6370    0.6020 C   0  0  0  0  0  0  0  0  0  0  0
    1.5800   -1.1780    0.6500 N   0  0  0  0  0  0  0  0  0  0  0
    1.3920   -2.5170    0.6730 C   0  0  0  0  0  0  0  0  0  0  0
    2.9120    0.7110    0.5810 O   0  0  0  0  0  0  0  0  0  0  0
    4.7700   -3.7290    0.5730 N   0  0  0  0  0  0  0  0  0  0  0
    5.6730   -0.7230    0.5060 Br  0  0  0  0  0  0  0  0  0  0  0
    4.5940   -5.1370    0.6000 C   0  0  0  0  0  0  0  0  0  0  0
    0.0450   -3.0840    0.7240 C   0  0  0  0  0  0  0  0  0  0  0
    5.8530   -7.2950    0.5360 C   0  0  0  0  0  0  0  0  0  0  0
    5.9700   -5.8230    0.5400 C   0  0  0  0  0  0  0  0  0  0  0
    6.2430   -8.0470   -0.5910 C   0  0  0  0  0  0  0  0  0  0  0
    5.3560   -7.9690    1.6710 C   0  0  0  0  0  0  0  0  0  0  0
    5.2450   -9.3700    1.6770 C   0  0  0  0  0  0  0  0  0  0  0
    6.1320   -9.4480   -0.5870 C   0  0  0  0  0  0  0  0  0  0  0
    5.6330  -10.1100    0.5470 C   0  0  0  0  0  0  0  0  0  0  0
    2.0470    1.1680    0.6060 H   0  0  0  0  0  0  0  0  0  0  0
    5.6740   -3.3780    0.5350 H   0  0  0  0  0  0  0  0  0  0  0
    4.0770   -5.4180    1.5200 H   0  0  0  0  0  0  0  0  0  0  0
    3.9960   -5.4460   -0.2600 H   0  0  0  0  0  0  0  0  0  0  0
   -0.6980   -2.2860    0.7390 H   0  0  0  0  0  0  0  0  0  0  0
   -0.1170   -3.7080   -0.1550 H   0  0  0  0  0  0  0  0  0  0  0
   -0.0600   -3.6900    1.6230 H   0  0  0  0  0  0  0  0  0  0  0
    6.4820   -5.4830   -0.3630 H   0  0  0  0  0  0  0  0  0  0  0
    6.5640   -5.5150    1.4030 H   0  0  0  0  0  0  0  0  0  0  0
    6.6080   -7.5750   -1.4200 H   0  0  0  0  0  0  0  0  0  0  0
    5.0740   -7.4390    2.4970 H   0  0  0  0  0  0  0  0  0  0  0
    4.8830   -9.8500    2.5010 H   0  0  0  0  0  0  0  0  0  0  0
    6.4140   -9.9840   -1.4080 H   0  0  0  0  0  0  0  0  0  0  0
    5.5530  -11.1270    0.5510 H   0  0  0  0  0  0  0  0  0  0  0
  1  2  1  0  0  0  0
  1  3  2  0  0  0  0
  1  8  1  0  0  0  0
  2  4  2  0  0  0  0
  2  9  1  0  0  0  0
  3  6  1  0  0  0  0
  4  5  1  0  0  0  0
  4  7  1  0  0  0  0
  5  6  2  0  0  0  0
  6 11  1  0  0  0  0
  7 19  1  0  0  0  0
  8 10  1  0  0  0  0
  8 20  1  0  0  0  0
 10 13  1  0  0  0  0
 10 21  1  0  0  0  0
 10 22  1  0  0  0  0
 11 23  1  0  0  0  0
 11 24  1  0  0  0  0
 11 25  1  0  0  0  0
 12 13  1  0  0  0  0
 12 14  2  0  0  0  0
 12 15  1  0  0  0  0
 13 26  1  0  0  0  0
 13 27  1  0  0  0  0
 14 17  1  0  0  0  0
 14 28  1  0  0  0  0
 15 16  2  0  0  0  0
 15 29  1  0  0  0  0
 16 18  1  0  0  0  0
 16 30  1  0  0  0  0
 17 18  2  0  0  0  0
 17 31  1  0  0  0  0
 18 32  1  0  0  0  0
M  END
> <From>
www.bindingDB.org

> <BindingDB Reactant_set_id>
51108774

> <Ligand InChI>
InChI=1S/C21H21N3O4/c1-14(25)23-20-6-2-15(11-22-20)3-7-21(26)24-9-8-17(12-24)16-4-5-18-19(10-16)28-13-27-18/h2-7,10-11,17H,8-9,12-13H2,1H3,(H,22,23,25)/b7-3+

> <Ligand InChI Key>
BSCWVPNVBCOQFK-XVNBXDOJSA-N

> <BindingDB MonomerID>
50452501

> <BindingDB Ligand Name>
CHEMBL4204415

> <Target Name>
Enoyl-[acyl-carrier-protein] reductase [NADPH] FabI [9-251]

> <Target Source Organism According to Curator or DataSource>
Staphylococcus aureus

> <Ki (nM)>


> <IC50 (nM)>
 1100

> <Kd (nM)>


> <EC50 (nM)>


> <kon (M-1-s-1)>


> <koff (s-1)>


> <pH>


> <Temp C>


> <Curation/DataSource>
ChEMBL

> <Article DOI>
10.1016/j.bmc.2017.11.018

> <BindingDB Entry DOI>
10.7270/Q2QF8WF7

> <PMID>
29162308

> <PubChem AID>


> <Patent Number>


> <Authors>
Kwon, J; Mistry, T; Ren, J; Johnson, ME; Mehboob, S

> <Institution>
Novalex Therapeutics

> <Link to Ligand in BindingDB>
http://www.bindingdb.org/bind/chemsearch/marvin/MolStructure.jsp?monomerid=50452501

> <Link to Ligand-Target Pair in BindingDB>
http://www.bindingdb.org/jsp/dbsearch/PrimarySearch_ki.jsp?energyterm=kJ/mole&tag=pol&polymerid=50004708&target=Enoyl-%5Bacyl-carrier-protein%5D+reductase+%5BNADPH%5D+FabI+%5B9-251%5D&column=ki&startPg=0&Increment=50&submit=Search

> <Link to Ligand-Target Pair in BindingDB>
http://www.bindingdb.org/jsp/dbsearch/PrimarySearch_ki.jsp?energyterm=kJ/mole&tag=r21&monomerid=50452501&enzyme=Enoyl-%5Bacyl-carrier-protein%5D+reductase+%5BNADPH%5D+FabI+%5B9-251%5D&column=ki&startPg=0&Increment=50&submit=Search

> <Ligand HET ID in PDB>


> <PDB ID(s) for Ligand-Target Complex>


> <PubChem CID of Ligand>
122243066

> <PubChem SID of Ligand>
433921357

> <ChEBI ID of Ligand>


> <ChEMBL ID of Ligand>


> <DrugBank ID of Ligand>


> <IUPHAR_GRAC ID of Ligand>


> <KEGG ID of Ligand>


> <ZINC ID of Ligand>


> <Number of Protein Chains in Target (bigger than 1 implies a multichain complex)>
1

> <BindingDB Target Chain Sequence>
YVIMGIANKRSIAFGVAKVLDQLGAKLVFTYRKERSRKELEKLLEQLNQPEAHLYQIDVQSDEEVINGFEQIGKDVGNIDGVYHSIAFANMEDLRGRFSETSREGFLLAQDISSYSLTIVAHEAKKLMPEGGSIVATTYLGGEFAVQNYNVMGVAKASLEANVKYLALDLGPDNIRVNAISAGPIRTLSAKGVGGFNTILKEIEERAPLKRNVDQVEVGKTAAYLLSDLSSGVTGENIHVDSG

> <PDB ID(s) of Target Chain>
3GNS,3GNT,3GR6,4ALI,4ALJ,4ALK,4ALL,4ALM,4ALN,4BNF,4BNG,4BNH,4BNI,4BNJ,4BNK,4BNL,4BNM,4BNN,4CUZ,4CV0,4CV1,4D41,4D42,4D43,4D44,4D45,4FS3,4NZ9,6TBB,6TBC,6YUR

> <UniProt (SwissProt) Recommended Name of Target Chain>
Enoyl-[acyl-carrier-protein] reductase [NADPH] FabI

> <UniProt (SwissProt) Entry Name of Target Chain>
FABI_STAAR

> <UniProt (SwissProt) Primary ID of Target Chain>
Q6GI75

> <UniProt (SwissProt) Secondary ID(s) of Target Chain>


> <UniProt (SwissProt) Alternative ID(s) of Target Chain>


> <UniProt (TrEMBL) Submitted Name of Target Chain>


> <UniProt (TrEMBL) Entry Name of Target Chain>


> <UniProt (TrEMBL) Primary ID of Target Chain>


> <UniProt (TrEMBL) Secondary ID(s) of Target Chain>


> <UniProt (TrEMBL) Alternative ID(s) of Target Chain>


$$$$
BindingDB_50452502_mol_1

Vconf v2.0 Academic SN VC001-00000579
 23 23  0  0  0  0  0  0  0  0999 V2000
    3.9780   -2.3970    0.5660 C   0  0  0  0  0  0  0  0  0  0  0
    3.9070   -3.8010    0.5570 C   0  0  0  0  0  0  0  0  0  0  0
    2.6910   -4.4030    0.5020 N   0  0  0  0  0  0  0  0  0  0  0
    2.7760   -1.6820    0.5220 C   0  0  0  0  0  0  0  0  0  0  0
    1.5770   -2.3410    0.4680 N   0  0  0  0  0  0  0  0  0  0  0
    1.5410   -3.7190    0.4580 C   0  0  0  0  0  0  0  0  0  0  0
    5.1190   -1.7950    0.6090 C   0  0  0  0  0  0  0  0  0  0  0
    6.1630   -1.2520    0.6490 N   0  0  0  0  0  0  0  0  0  0  0
    2.7440   -0.3230    0.5230 O   0  0  0  0  0  0  0  0  0  0  0
    5.0180   -4.6040    0.6020 N   0  0  0  0  0  0  0  0  0  0  0
    0.2630   -4.4320    0.4000 C   0  0  0  0  0  0  0  0  0  0  0
    4.8860   -6.0170    0.6000 C   0  0  0  0  0  0  0  0  0  0  0
    6.2550   -6.7200    0.6520 C   0  0  0  0  0  0  0  0  0  0  0
    1.8540    0.0890    0.5030 H   0  0  0  0  0  0  0  0  0  0  0
    5.8920   -4.1980    0.6390 H   0  0  0  0  0  0  0  0  0  0  0
   -0.5600   -3.7290    0.3510 H   0  0  0  0  0  0  0  0  0  0  0
    0.2470   -5.0780   -0.4850 H   0  0  0  0  0  0  0  0  0  0  0
    0.1610   -5.0560    1.2950 H   0  0  0  0  0  0  0  0  0  0  0
    4.3060   -6.3310    1.4630 H   0  0  0  0  0  0  0  0  0  0  0
    4.3730   -6.3340   -0.3030 H   0  0  0  0  0  0  0  0  0  0  0
    6.0980   -7.8070    0.6430 H   0  0  0  0  0  0  0  0  0  0  0
    6.8610   -6.4500   -0.2150 H   0  0  0  0  0  0  0  0  0  0  0
    6.7920   -6.4550    1.5650 H   0  0  0  0  0  0  0  0  0  0  0
  1  2  1  0  0  0  0
  1  4  2  0  0  0  0
  1  7  1  0  0  0  0
  2  3  2  0  0  0  0
  2 10  1  0  0  0  0
  3  6  1  0  0  0  0
  4  5  1  0  0  0  0
  4  9  1  0  0  0  0
  5  6  2  0  0  0  0
  6 11  1  0  0  0  0
  7  8  3  0  0  0  0
  9 14  1  0  0  0  0
 10 12  1  0  0  0  0
 10 15  1  0  0  0  0
 11 16  1  0  0  0  0
 11 17  1  0  0  0  0
 11 18  1  0  0  0  0
 12 13  1  0  0  0  0
 12 19  1  0  0  0  0
 12 20  1  0  0  0  0
 13 21  1  0  0  0  0
 13 22  1  0  0  0  0
 13 23  1  0  0  0  0
M  END
> <From>
www.bindingDB.org

> <BindingDB Reactant_set_id>
51108776

> <Ligand InChI>
InChI=1S/C20H21N3O2/c1-15(24)22-19-9-7-16(13-21-19)8-10-20(25)23-12-11-18(14-23)17-5-3-2-4-6-17/h2-10,13,18H,11-12,14H2,1H3,(H,21,22,24)/b10-8+

> <Ligand InChI Key>
FYJBWZGKTKRUOL-CSKARUKUSA-N

> <BindingDB MonomerID>
50452502

> <BindingDB Ligand Name>
CHEMBL4209594

> <Target Name>
Enoyl-[acyl-carrier-protein] reductase [NADPH] FabI [9-251]

> <Target Source Organism According to Curator or DataSource>
Staphylococcus aureus

> <Ki (nM)>


> <IC50 (nM)>
 1200

> <Kd (nM)>


> <EC50 (nM)>


> <kon (M-1-s-1)>


> <koff (s-1)>


> <pH>


> <Temp C>


> <Curation/DataSource>
ChEMBL

> <Article DOI>
10.1016/j.bmc.2017.11.018

> <BindingDB Entry DOI>
10.7270/Q2QF8WF7

> <PMID>
29162308

> <PubChem AID>


> <Patent Number>


> <Authors>
Kwon, J; Mistry, T; Ren, J; Johnson, ME; Mehboob, S

> <Institution>
Novalex Therapeutics

> <Link to Ligand in BindingDB>
http://www.bindingdb.org/bind/chemsearch/marvin/MolStructure.jsp?monomerid=50452502

> <Link to Ligand-Target Pair in BindingDB>
http://www.bindingdb.org/jsp/dbsearch/PrimarySearch_ki.jsp?energyterm=kJ/mole&tag=pol&polymerid=50004708&target=Enoyl-%5Bacyl-carrier-protein%5D+reductase+%5BNADPH%5D+FabI+%5B9-251%5D&column=ki&startPg=0&Increment=50&submit=Search

> <Link to Ligand-Target Pair in BindingDB>
http://www.bindingdb.org/jsp/dbsearch/PrimarySearch_ki.jsp?energyterm=kJ/mole&tag=r21&monomerid=50452502&enzyme=Enoyl-%5Bacyl-carrier-protein%5D+reductase+%5BNADPH%5D+FabI+%5B9-251%5D&column=ki&startPg=0&Increment=50&submit=Search

> <Ligand HET ID in PDB>


> <PDB ID(s) for Ligand-Target Complex>


> <PubChem CID of Ligand>
122243059

> <PubChem SID of Ligand>
433921358

> <ChEBI ID of Ligand>


> <ChEMBL ID of Ligand>


> <DrugBank ID of Ligand>


> <IUPHAR_GRAC ID of Ligand>


> <KEGG ID of Ligand>


> <ZINC ID of Ligand>


> <Number of Protein Chains in Target (bigger than 1 implies a multichain complex)>
1

> <BindingDB Target Chain Sequence>
YVIMGIANKRSIAFGVAKVLDQLGAKLVFTYRKERSRKELEKLLEQLNQPEAHLYQIDVQSDEEVINGFEQIGKDVGNIDGVYHSIAFANMEDLRGRFSETSREGFLLAQDISSYSLTIVAHEAKKLMPEGGSIVATTYLGGEFAVQNYNVMGVAKASLEANVKYLALDLGPDNIRVNAISAGPIRTLSAKGVGGFNTILKEIEERAPLKRNVDQVEVGKTAAYLLSDLSSGVTGENIHVDSG

> <PDB ID(s) of Target Chain>
3GNS,3GNT,3GR6,4ALI,4ALJ,4ALK,4ALL,4ALM,4ALN,4BNF,4BNG,4BNH,4BNI,4BNJ,4BNK,4BNL,4BNM,4BNN,4CUZ,4CV0,4CV1,4D41,4D42,4D43,4D44,4D45,4FS3,4NZ9,6TBB,6TBC,6YUR

> <UniProt (SwissProt) Recommended Name of Target Chain>
Enoyl-[acyl-carrier-protein] reductase [NADPH] FabI

> <UniProt (SwissProt) Entry Name of Target Chain>
FABI_STAAR

> <UniProt (SwissProt) Primary ID of Target Chain>
Q6GI75

> <UniProt (SwissProt) Secondary ID(s) of Target Chain>


> <UniProt (SwissProt) Alternative ID(s) of Target Chain>


> <UniProt (TrEMBL) Submitted Name of Target Chain>


> <UniProt (TrEMBL) Entry Name of Target Chain>


> <UniProt (TrEMBL) Primary ID of Target Chain>


> <UniProt (TrEMBL) Secondary ID(s) of Target Chain>


> <UniProt (TrEMBL) Alternative ID(s) of Target Chain>


$$$$
BindingDB_50280893_3D

Vconf v2.1
 54 58  0  0  0  0  0  0  0  0999 V2000
    7.1550   -0.9940    0.4260 C   0  0  0  0  0  0  0  0  0  0  0
    7.2990   -1.6140    1.6860 C   0  0  0  0  0  0  0  0  0  0  0
    8.2610   -2.5460    1.8920 N   0  0  0  0  0  0  0  0  0  0  0
    8.0540   -1.3900   -0.5900 C   0  0  0  0  0  0  0  0  0  0  0
    9.0440   -2.3600   -0.3530 C   0  0  0  0  0  0  0  0  0  0  0
    9.1280   -2.9360    0.9280 C   0  0  0  0  0  0  0  0  0  0  0
   10.0440   -3.8800    1.2280 N   0  0  0  0  0  0  0  0  0  0  0
   10.9600   -4.3320    0.3460 C   0  0  0  0  0  0  0  0  0  0  0
   11.0450   -3.8160   -1.0310 C   0  0  0  0  0  0  0  0  0  0  0
    9.9600   -2.7810   -1.4300 C   0  0  0  0  0  0  0  0  0  0  0
   11.7750   -5.2010    0.7220 O   0  0  0  0  0  0  0  0  0  0  0
    6.1270   -0.0340    0.2480 C   0  0  0  0  0  0  0  0  0  0  0
    5.8650    0.6610   -0.9390 C   0  0  0  0  0  0  0  0  0  0  0
    4.8100    1.5750   -1.0770 C   0  0  0  0  0  0  0  0  0  0  0
    3.9040    1.8440   -0.0470 N   0  0  0  0  0  0  0  0  0  0  0
    4.6670    2.1820   -2.1610 O   0  0  0  0  0  0  0  0  0  0  0
    2.8840    1.0250    0.6060 C   0  0  0  0  0  0  0  0  0  0  0
    2.6400    2.2410    1.5130 C   0  0  0  0  0  0  0  0  0  0  0
    3.6410    3.0720    0.6960 C   0  0  0  0  0  0  0  0  0  0  0
    3.0090    2.0520    2.9910 C   0  0  0  0  0  0  0  0  0  0  0
    4.3680    1.6130    3.0870 O   0  0  0  0  0  0  0  0  0  0  0
    4.9940    1.3980    4.2800 C   0  0  0  0  0  0  0  0  0  0  0
    6.3440    1.0130    4.2260 C   0  0  0  0  0  0  0  0  0  0  0
    5.0790    1.3000    6.7200 C   0  0  0  0  0  0  0  0  0  0  0
    4.3660    1.5400    5.5340 C   0  0  0  0  0  0  0  0  0  0  0
    6.4310    0.9070    6.6680 C   0  0  0  0  0  0  0  0  0  0  0
    7.0700    0.7590    5.4070 C   0  0  0  0  0  0  0  0  0  0  0
    8.4230    0.3680    5.3510 C   0  0  0  0  0  0  0  0  0  0  0
    9.1380    0.1260    6.5370 C   0  0  0  0  0  0  0  0  0  0  0
    8.5080    0.2730    7.7830 C   0  0  0  0  0  0  0  0  0  0  0
    7.1600    0.6630    7.8510 C   0  0  0  0  0  0  0  0  0  0  0
    6.6760   -1.3720    2.4580 H   0  0  0  0  0  0  0  0  0  0  0
    7.9950   -0.9810   -1.5230 H   0  0  0  0  0  0  0  0  0  0  0
   10.0460   -4.2500    2.1240 H   0  0  0  0  0  0  0  0  0  0  0
   12.0260   -3.3560   -1.1560 H   0  0  0  0  0  0  0  0  0  0  0
   10.9790   -4.6630   -1.7150 H   0  0  0  0  0  0  0  0  0  0  0
    9.3610   -3.2090   -2.2360 H   0  0  0  0  0  0  0  0  0  0  0
   10.4660   -1.8960   -1.8200 H   0  0  0  0  0  0  0  0  0  0  0
    5.5290    0.1670    1.0520 H   0  0  0  0  0  0  0  0  0  0  0
    6.4620    0.5110   -1.7530 H   0  0  0  0  0  0  0  0  0  0  0
    2.0450    0.7490   -0.0340 H   0  0  0  0  0  0  0  0  0  0  0
    3.2380    0.1220    1.1040 H   0  0  0  0  0  0  0  0  0  0  0
    1.6180    2.6190    1.4860 H   0  0  0  0  0  0  0  0  0  0  0
    4.4940    3.4730    1.2450 H   0  0  0  0  0  0  0  0  0  0  0
    3.2060    3.8770    0.1010 H   0  0  0  0  0  0  0  0  0  0  0
    2.8860    3.0060    3.5070 H   0  0  0  0  0  0  0  0  0  0  0
    2.3420    1.3100    3.4320 H   0  0  0  0  0  0  0  0  0  0  0
    6.7960    0.9200    3.3140 H   0  0  0  0  0  0  0  0  0  0  0
    4.6060    1.4140    7.6180 H   0  0  0  0  0  0  0  0  0  0  0
    3.3880    1.8240    5.5890 H   0  0  0  0  0  0  0  0  0  0  0
    8.8950    0.2570    4.4520 H   0  0  0  0  0  0  0  0  0  0  0
   10.1180   -0.1560    6.4920 H   0  0  0  0  0  0  0  0  0  0  0
    9.0310    0.0990    8.6420 H   0  0  0  0  0  0  0  0  0  0  0
    6.7160    0.7680    8.7650 H   0  0  0  0  0  0  0  0  0  0  0
  1  2  2  0  0  0  0
  1  4  1  0  0  0  0
  1 12  1  0  0  0  0
  2  3  1  0  0  0  0
  2 32  1  0  0  0  0
  3  6  2  0  0  0  0
  4  5  2  0  0  0  0
  4 33  1  0  0  0  0
  5  6  1  0  0  0  0
  5 10  1  0  0  0  0
  6  7  1  0  0  0  0
  7  8  1  0  0  0  0
  7 34  1  0  0  0  0
  8  9  1  0  0  0  0
  8 11  2  0  0  0  0
  9 10  1  0  0  0  0
  9 35  1  0  0  0  0
  9 36  1  0  0  0  0
 10 37  1  0  0  0  0
 10 38  1  0  0  0  0
 12 13  2  0  0  0  0
 12 39  1  0  0  0  0
 13 14  1  0  0  0  0
 13 40  1  0  0  0  0
 14 15  1  0  0  0  0
 14 16  2  0  0  0  0
 15 17  1  0  0  0  0
 15 19  1  0  0  0  0
 17 18  1  0  0  0  0
 17 41  1  0  0  0  0
 17 42  1  0  0  0  0
 18 19  1  0  0  0  0
 18 20  1  0  0  0  0
 18 43  1  0  0  0  0
 19 44  1  0  0  0  0
 19 45  1  0  0  0  0
 20 21  1  0  0  0  0
 20 46  1  0  0  0  0
 20 47  1  0  0  0  0
 21 22  1  0  0  0  0
 22 23  2  0  0  0  0
 22 25  1  0  0  0  0
 23 27  1  0  0  0  0
 23 48  1  0  0  0  0
 24 25  2  0  0  0  0
 24 26  1  0  0  0  0
 24 49  1  0  0  0  0
 25 50  1  0  0  0  0
 26 27  1  0  0  0  0
 26 31  2  0  0  0  0
 27 28  2  0  0  0  0
 28 29  1  0  0  0  0
 28 51  1  0  0  0  0
 29 30  2  0  0  0  0
 29 52  1  0  0  0  0
 30 31  1  0  0  0  0
 30 53  1  0  0  0  0
 31 54  1  0  0  0  0
M  END
> <From>
www.bindingDB.org

> <BindingDB Reactant_set_id>
50280893

> <Ligand InChI>
InChI=1S/C25H23N3O3/c29-23-9-7-21-11-17(13-26-25(21)27-23)5-10-24(30)28-14-18(15-28)16-31-22-8-6-19-3-1-2-4-20(19)12-22/h1-6,8,10-13,18H,7,9,14-16H2,(H,26,27,29)/b10-5+

> <Ligand InChI Key>
XYBAETFVONTPLC-BJMVGYQFSA-N

> <BindingDB MonomerID>
50052229

> <BindingDB Ligand Name>
CHEMBL3322713

> <Target Name>
Enoyl-[acyl-carrier-protein] reductase [NADPH] FabI [9-251]

> <Target Source Organism According to Curator or DataSource>
Staphylococcus aureus

> <Ki (nM)>


> <IC50 (nM)>
 1410

> <Kd (nM)>


> <EC50 (nM)>


> <kon (M-1-s-1)>


> <koff (s-1)>


> <pH>


> <Temp C>


> <Curation/DataSource>
ChEMBL

> <Article DOI>
10.1016/j.ejmech.2014.07.036

> <BindingDB Entry DOI>
10.7270/Q2CJ8G45

> <PMID>
25036796

> <PubChem AID>


> <Patent Number>


> <Authors>
Takhi, M; Sreenivas, K; Reddy, CK; Munikumar, M; Praveena, K; Sudheer, P; Rao, BN; Ramakanth, G; Sivaranjani, J; Mulik, S; Reddy, YR; Narasimha Rao, K; Pallavi, R; Lakshminarasimhan, A; Panigrahi, SK; Antony, T; Abdullah, I; Lee, YK; Ramachandra, M; Yusof, R; Rahman, NA; Subramanya, H

> <Institution>
Aurigene Discovery Technologies Ltd

> <Link to Ligand in BindingDB>
http://www.bindingdb.org/bind/chemsearch/marvin/MolStructure.jsp?monomerid=50052229

> <Link to Ligand-Target Pair in BindingDB>
http://www.bindingdb.org/jsp/dbsearch/PrimarySearch_ki.jsp?energyterm=kJ/mole&tag=pol&polymerid=50004708&target=Enoyl-%5Bacyl-carrier-protein%5D+reductase+%5BNADPH%5D+FabI+%5B9-251%5D&column=ki&startPg=0&Increment=50&submit=Search

> <Link to Ligand-Target Pair in BindingDB>
http://www.bindingdb.org/jsp/dbsearch/PrimarySearch_ki.jsp?energyterm=kJ/mole&tag=r21&monomerid=50052229&enzyme=Enoyl-%5Bacyl-carrier-protein%5D+reductase+%5BNADPH%5D+FabI+%5B9-251%5D&column=ki&startPg=0&Increment=50&submit=Search

> <Ligand HET ID in PDB>


> <PDB ID(s) for Ligand-Target Complex>


> <PubChem CID of Ligand>
118710279

> <PubChem SID of Ligand>
103949125

> <ChEBI ID of Ligand>


> <ChEMBL ID of Ligand>
CHEMBL3322713

> <DrugBank ID of Ligand>


> <IUPHAR_GRAC ID of Ligand>


> <KEGG ID of Ligand>


> <ZINC ID of Ligand>
ZINC13756986

> <Number of Protein Chains in Target (bigger than 1 implies a multichain complex)>
1

> <BindingDB Target Chain Sequence>
YVIMGIANKRSIAFGVAKVLDQLGAKLVFTYRKERSRKELEKLLEQLNQPEAHLYQIDVQSDEEVINGFEQIGKDVGNIDGVYHSIAFANMEDLRGRFSETSREGFLLAQDISSYSLTIVAHEAKKLMPEGGSIVATTYLGGEFAVQNYNVMGVAKASLEANVKYLALDLGPDNIRVNAISAGPIRTLSAKGVGGFNTILKEIEERAPLKRNVDQVEVGKTAAYLLSDLSSGVTGENIHVDSG

> <PDB ID(s) of Target Chain>
3GNS,3GNT,3GR6,4ALI,4ALJ,4ALK,4ALL,4ALM,4ALN,4BNF,4BNG,4BNH,4BNI,4BNJ,4BNK,4BNL,4BNM,4BNN,4CUZ,4CV0,4CV1,4D41,4D42,4D43,4D44,4D45,4FS3,4NZ9,6TBB,6TBC,6YUR

> <UniProt (SwissProt) Recommended Name of Target Chain>
Enoyl-[acyl-carrier-protein] reductase [NADPH] FabI

> <UniProt (SwissProt) Entry Name of Target Chain>
FABI_STAAR

> <UniProt (SwissProt) Primary ID of Target Chain>
Q6GI75

> <UniProt (SwissProt) Secondary ID(s) of Target Chain>


> <UniProt (SwissProt) Alternative ID(s) of Target Chain>


> <UniProt (TrEMBL) Submitted Name of Target Chain>


> <UniProt (TrEMBL) Entry Name of Target Chain>


> <UniProt (TrEMBL) Primary ID of Target Chain>


> <UniProt (TrEMBL) Secondary ID(s) of Target Chain>


> <UniProt (TrEMBL) Alternative ID(s) of Target Chain>


$$$$
BindingDB_50452479_mol_1

Vconf v2.0 Academic SN VC001-00000579
 41 44  0  0  0  0  0  0  0  0999 V2000
    6.5590   -0.9960    0.9770 N   0  0  0  0  0  0  0  0  0  0  0
    6.4010    1.4630   -0.3930 C   0  0  0  0  0  0  0  0  0  0  0
    6.5520    1.4780    1.0860 C   0  0  1  0  0  0  0  0  0  0  0
    6.1390    0.2620   -1.0990 C   0  0  0  0  0  0  0  0  0  0  0
    6.0710    0.1640    1.7460 C   0  0  0  0  0  0  0  0  0  0  0
    5.9930   -1.0350   -0.3940 C   0  0  2  0  0  0  0  0  0  0  0
    7.9470    1.8000    1.4950 C   0  0  0  0  0  0  0  0  0  0  0
    6.3830   -2.2740    1.6940 C   0  0  0  0  0  0  0  0  0  0  0
    6.5200    2.6730   -1.1100 C   0  0  0  0  0  0  0  0  0  0  0
    5.9970    0.2980   -2.5010 C   0  0  0  0  0  0  0  0  0  0  0
    4.5120   -1.4800   -0.3960 C   0  0  0  0  0  0  0  0  0  0  0
    8.2090    2.9600    2.2560 C   0  0  0  0  0  0  0  0  0  0  0
    9.0300    0.9630    1.1450 C   0  0  0  0  0  0  0  0  0  0  0
    4.9100   -2.7050    1.7620 C   0  0  0  0  0  0  0  0  0  0  0
    6.3800    2.6970   -2.5070 C   0  0  0  0  0  0  0  0  0  0  0
    6.1180    1.5080   -3.2030 C   0  0  0  0  0  0  0  0  0  0  0
    4.3420   -2.8140    0.3430 C   0  0  0  0  0  0  0  0  0  0  0
   10.3400    1.2760    1.5450 C   0  0  0  0  0  0  0  0  0  0  0
    9.5180    3.2760    2.6580 C   0  0  0  0  0  0  0  0  0  0  0
   10.5840    2.4340    2.3030 C   0  0  0  0  0  0  0  0  0  0  0
    5.8820    2.2530    1.4670 H   0  0  0  0  0  0  0  0  0  0  0
    6.5680   -1.7830   -0.9440 H   0  0  0  0  0  0  0  0  0  0  0
    4.9810    0.1600    1.7760 H   0  0  0  0  0  0  0  0  0  0  0
    6.4350    0.1110    2.7740 H   0  0  0  0  0  0  0  0  0  0  0
    6.7780   -2.1850    2.7070 H   0  0  0  0  0  0  0  0  0  0  0
    6.9500   -3.0470    1.1740 H   0  0  0  0  0  0  0  0  0  0  0
    6.7090    3.5440   -0.6120 H   0  0  0  0  0  0  0  0  0  0  0
    5.8050   -0.5630   -3.0160 H   0  0  0  0  0  0  0  0  0  0  0
    3.8900   -0.7240    0.0860 H   0  0  0  0  0  0  0  0  0  0  0
    4.1660   -1.6100   -1.4230 H   0  0  0  0  0  0  0  0  0  0  0
    7.4420    3.5790    2.5220 H   0  0  0  0  0  0  0  0  0  0  0
    8.8660    0.1200    0.5930 H   0  0  0  0  0  0  0  0  0  0  0
    4.8410   -3.6750    2.2540 H   0  0  0  0  0  0  0  0  0  0  0
    4.3360   -1.9750    2.3350 H   0  0  0  0  0  0  0  0  0  0  0
    6.4690    3.5770   -3.0140 H   0  0  0  0  0  0  0  0  0  0  0
    6.0140    1.5220   -4.2180 H   0  0  0  0  0  0  0  0  0  0  0
    4.8710   -3.5980   -0.2000 H   0  0  0  0  0  0  0  0  0  0  0
    3.2830   -3.0680    0.3940 H   0  0  0  0  0  0  0  0  0  0  0
   11.1130    0.6640    1.2850 H   0  0  0  0  0  0  0  0  0  0  0
    9.6940    4.1170    3.2080 H   0  0  0  0  0  0  0  0  0  0  0
   11.5350    2.6620    2.5940 H   0  0  0  0  0  0  0  0  0  0  0
  1  5  1  0  0  0  0
  1  6  1  0  0  0  0
  1  8  1  0  0  0  0
  2  3  1  0  0  0  0
  2  4  1  0  0  0  0
  2  9  2  0  0  0  0
  3  5  1  0  0  0  0
  3  7  1  6  0  0  0
  3 21  1  1  0  0  0
  4  6  1  0  0  0  0
  4 10  2  0  0  0  0
  5 23  1  0  0  0  0
  5 24  1  0  0  0  0
  6 11  1  0  0  0  0
  6 22  1  6  0  0  0
  7 12  2  0  0  0  0
  7 13  1  0  0  0  0
  8 14  1  0  0  0  0
  8 25  1  0  0  0  0
  8 26  1  0  0  0  0
  9 15  1  0  0  0  0
  9 27  1  0  0  0  0
 10 16  1  0  0  0  0
 10 28  1  0  0  0  0
 11 17  1  0  0  0  0
 11 29  1  0  0  0  0
 11 30  1  0  0  0  0
 12 19  1  0  0  0  0
 12 31  1  0  0  0  0
 13 18  2  0  0  0  0
 13 32  1  0  0  0  0
 14 17  1  0  0  0  0
 14 33  1  0  0  0  0
 14 34  1  0  0  0  0
 15 16  2  0  0  0  0
 15 35  1  0  0  0  0
 16 36  1  0  0  0  0
 17 37  1  0  0  0  0
 17 38  1  0  0  0  0
 18 20  1  0  0  0  0
 18 39  1  0  0  0  0
 19 20  2  0  0  0  0
 19 40  1  0  0  0  0
 20 41  1  0  0  0  0
M  END
> <From>
www.bindingDB.org

> <BindingDB Reactant_set_id>
51108780

> <Ligand InChI>
InChI=1S/C19H17ClFNO3/c20-15-2-1-3-16(21)14(15)9-19(23)22-7-6-13(10-22)12-4-5-17-18(8-12)25-11-24-17/h1-5,8,13H,6-7,9-11H2

> <Ligand InChI Key>
MBOJITLKCHBRAJ-UHFFFAOYSA-N

> <BindingDB MonomerID>
50452479

> <BindingDB Ligand Name>
CHEMBL4210008

> <Target Name>
Enoyl-[acyl-carrier-protein] reductase [NADPH] FabI [9-251]

> <Target Source Organism According to Curator or DataSource>
Staphylococcus aureus

> <Ki (nM)>


> <IC50 (nM)>
 1800

> <Kd (nM)>


> <EC50 (nM)>


> <kon (M-1-s-1)>


> <koff (s-1)>


> <pH>


> <Temp C>


> <Curation/DataSource>
ChEMBL

> <Article DOI>
10.1016/j.bmc.2017.11.018

> <BindingDB Entry DOI>
10.7270/Q2QF8WF7

> <PMID>
29162308

> <PubChem AID>


> <Patent Number>


> <Authors>
Kwon, J; Mistry, T; Ren, J; Johnson, ME; Mehboob, S

> <Institution>
Novalex Therapeutics

> <Link to Ligand in BindingDB>
http://www.bindingdb.org/bind/chemsearch/marvin/MolStructure.jsp?monomerid=50452479

> <Link to Ligand-Target Pair in BindingDB>
http://www.bindingdb.org/jsp/dbsearch/PrimarySearch_ki.jsp?energyterm=kJ/mole&tag=pol&polymerid=50004708&target=Enoyl-%5Bacyl-carrier-protein%5D+reductase+%5BNADPH%5D+FabI+%5B9-251%5D&column=ki&startPg=0&Increment=50&submit=Search

> <Link to Ligand-Target Pair in BindingDB>
http://www.bindingdb.org/jsp/dbsearch/PrimarySearch_ki.jsp?energyterm=kJ/mole&tag=r21&monomerid=50452479&enzyme=Enoyl-%5Bacyl-carrier-protein%5D+reductase+%5BNADPH%5D+FabI+%5B9-251%5D&column=ki&startPg=0&Increment=50&submit=Search

> <Ligand HET ID in PDB>


> <PDB ID(s) for Ligand-Target Complex>


> <PubChem CID of Ligand>
91630757

> <PubChem SID of Ligand>
433921345

> <ChEBI ID of Ligand>


> <ChEMBL ID of Ligand>


> <DrugBank ID of Ligand>


> <IUPHAR_GRAC ID of Ligand>


> <KEGG ID of Ligand>


> <ZINC ID of Ligand>


> <Number of Protein Chains in Target (bigger than 1 implies a multichain complex)>
1

> <BindingDB Target Chain Sequence>
YVIMGIANKRSIAFGVAKVLDQLGAKLVFTYRKERSRKELEKLLEQLNQPEAHLYQIDVQSDEEVINGFEQIGKDVGNIDGVYHSIAFANMEDLRGRFSETSREGFLLAQDISSYSLTIVAHEAKKLMPEGGSIVATTYLGGEFAVQNYNVMGVAKASLEANVKYLALDLGPDNIRVNAISAGPIRTLSAKGVGGFNTILKEIEERAPLKRNVDQVEVGKTAAYLLSDLSSGVTGENIHVDSG

> <PDB ID(s) of Target Chain>
3GNS,3GNT,3GR6,4ALI,4ALJ,4ALK,4ALL,4ALM,4ALN,4BNF,4BNG,4BNH,4BNI,4BNJ,4BNK,4BNL,4BNM,4BNN,4CUZ,4CV0,4CV1,4D41,4D42,4D43,4D44,4D45,4FS3,4NZ9,6TBB,6TBC,6YUR

> <UniProt (SwissProt) Recommended Name of Target Chain>
Enoyl-[acyl-carrier-protein] reductase [NADPH] FabI

> <UniProt (SwissProt) Entry Name of Target Chain>
FABI_STAAR

> <UniProt (SwissProt) Primary ID of Target Chain>
Q6GI75

> <UniProt (SwissProt) Secondary ID(s) of Target Chain>


> <UniProt (SwissProt) Alternative ID(s) of Target Chain>


> <UniProt (TrEMBL) Submitted Name of Target Chain>


> <UniProt (TrEMBL) Entry Name of Target Chain>


> <UniProt (TrEMBL) Primary ID of Target Chain>


> <UniProt (TrEMBL) Secondary ID(s) of Target Chain>


> <UniProt (TrEMBL) Alternative ID(s) of Target Chain>


$$$$
BindingDB_50452494_mol_1

Vconf v2.0 Academic SN VC001-00000579
 59 63  0  0  0  0  0  0  0  0999 V2000
    2.2670   -1.7910    0.5510 C   0  0  0  0  0  0  0  0  0  0  0
    1.5460   -2.9760    0.4040 C   0  0  0  0  0  0  0  0  0  0  0
    3.6960   -2.0300    0.7320 C   0  0  1  0  0  0  0  0  0  0  0
    7.2270   -3.6730    7.0230 C   0  0  0  0  0  0  0  0  0  0  0
    2.4010   -4.1690    0.4740 C   0  0  1  0  0  0  0  0  0  0  0
    4.1860   -1.5430    2.0460 N   0  0  0  0  0  0  0  0  0  0  0
    7.6890   -2.8000    6.1190 N   0  0  0  0  0  0  0  0  0  0  0
    3.8280   -3.5560    0.5010 C   0  0  0  0  0  0  0  0  0  0  0
    7.5580   -4.8950    6.7140 N   0  0  0  0  0  0  0  0  0  0  0
    5.5670   -1.6290    4.5850 N   0  0  0  0  0  0  0  0  0  0  0
    0.1550   -2.9410    0.1970 C   0  0  0  0  0  0  0  0  0  0  0
    6.3220   -3.2470    8.4360 S   0  0  0  0  0  0  0  0  0  0  0
    2.1760   -5.1090    1.6090 C   0  0  0  0  0  0  0  0  0  0  0
    1.6200   -0.5440    0.5210 C   0  0  0  0  0  0  0  0  0  0  0
    7.4970   -1.3920    6.1510 C   0  0  0  0  0  0  0  0  0  0  0
    5.6590   -1.6020    2.1160 C   0  0  0  0  0  0  0  0  0  0  0
    3.6000   -2.2250    3.2210 C   0  0  0  0  0  0  0  0  0  0  0
    1.3290   -4.8370    2.7090 C   0  0  0  0  0  0  0  0  0  0  0
    2.8700   -6.3380    1.5880 C   0  0  0  0  0  0  0  0  0  0  0
    6.0340   -1.0200    5.8490 C   0  0  0  0  0  0  0  0  0  0  0
    4.0950   -1.5570    4.5100 C   0  0  0  0  0  0  0  0  0  0  0
    6.1520   -0.9450    3.4130 C   0  0  0  0  0  0  0  0  0  0  0
    0.2260   -0.5010    0.3280 C   0  0  0  0  0  0  0  0  0  0  0
   -0.5040   -1.6970    0.1640 C   0  0  0  0  0  0  0  0  0  0  0
    1.8790   -6.9850    3.7140 C   0  0  0  0  0  0  0  0  0  0  0
    8.2850   -4.9430    5.5400 C   0  0  0  0  0  0  0  0  0  0  0
    2.7250   -7.2700    2.6300 C   0  0  0  0  0  0  0  0  0  0  0
    1.1820   -5.7660    3.7530 C   0  0  0  0  0  0  0  0  0  0  0
    8.3990   -3.4730    5.1020 C   0  0  0  0  0  0  0  0  0  0  0
   -0.3910    0.6460    0.2970 F   0  0  0  0  0  0  0  0  0  0  0
    1.7430   -7.8470    4.6820 F   0  0  0  0  0  0  0  0  0  0  0
    4.2320   -1.5060   -0.0620 H   0  0  0  0  0  0  0  0  0  0  0
    2.2740   -4.7180   -0.4620 H   0  0  0  0  0  0  0  0  0  0  0
    4.2910   -3.7170   -0.4740 H   0  0  0  0  0  0  0  0  0  0  0
    4.4650   -4.0160    1.2560 H   0  0  0  0  0  0  0  0  0  0  0
   -0.3720   -3.8070    0.0800 H   0  0  0  0  0  0  0  0  0  0  0
    6.1420   -4.4910    8.9570 H   0  0  0  0  0  0  0  0  0  0  0
    2.1570    0.3170    0.6380 H   0  0  0  0  0  0  0  0  0  0  0
    8.1430   -0.9190    5.4120 H   0  0  0  0  0  0  0  0  0  0  0
    7.7710   -1.0060    7.1350 H   0  0  0  0  0  0  0  0  0  0  0
    6.0890   -1.0650    1.2700 H   0  0  0  0  0  0  0  0  0  0  0
    6.0030   -2.6370    2.0900 H   0  0  0  0  0  0  0  0  0  0  0
    3.8850   -3.2770    3.2390 H   0  0  0  0  0  0  0  0  0  0  0
    2.5130   -2.1510    3.1960 H   0  0  0  0  0  0  0  0  0  0  0
    0.8210   -3.9550    2.7650 H   0  0  0  0  0  0  0  0  0  0  0
    3.4900   -6.5570    0.8070 H   0  0  0  0  0  0  0  0  0  0  0
    5.9400    0.0660    5.8020 H   0  0  0  0  0  0  0  0  0  0  0
    5.4180   -1.3800    6.6740 H   0  0  0  0  0  0  0  0  0  0  0
    3.6600   -2.0840    5.3600 H   0  0  0  0  0  0  0  0  0  0  0
    3.7650   -0.5170    4.5280 H   0  0  0  0  0  0  0  0  0  0  0
    7.2380   -1.0210    3.4380 H   0  0  0  0  0  0  0  0  0  0  0
    5.8690    0.1090    3.4110 H   0  0  0  0  0  0  0  0  0  0  0
   -1.5140   -1.6640    0.0210 H   0  0  0  0  0  0  0  0  0  0  0
    9.2720   -5.3690    5.7220 H   0  0  0  0  0  0  0  0  0  0  0
    7.7530   -5.5280    4.7890 H   0  0  0  0  0  0  0  0  0  0  0
    3.2360   -8.1530    2.5950 H   0  0  0  0  0  0  0  0  0  0  0
    0.5680   -5.5500    4.5400 H   0  0  0  0  0  0  0  0  0  0  0
    7.9250   -3.3190    4.1320 H   0  0  0  0  0  0  0  0  0  0  0
    9.4410   -3.1520    5.0770 H   0  0  0  0  0  0  0  0  0  0  0
  1  2  1  0  0  0  0
  1  3  1  0  0  0  0
  1 14  2  0  0  0  0
  2  5  1  0  0  0  0
  2 11  2  0  0  0  0
  3  6  1  0  0  0  0
  3  8  1  0  0  0  0
  3 32  1  0  0  0  0
  4  7  1  0  0  0  0
  4  9  2  0  0  0  0
  4 12  1  0  0  0  0
  5  8  1  0  0  0  0
  5 13  1  0  0  0  0
  5 33  1  0  0  0  0
  6 16  1  0  0  0  0
  6 17  1  0  0  0  0
  7 15  1  0  0  0  0
  7 29  1  0  0  0  0
  8 34  1  0  0  0  0
  8 35  1  0  0  0  0
  9 26  1  0  0  0  0
 10 20  1  0  0  0  0
 10 21  1  0  0  0  0
 10 22  1  0  0  0  0
 11 24  1  0  0  0  0
 11 36  1  0  0  0  0
 12 37  1  0  0  0  0
 13 18  2  0  0  0  0
 13 19  1  0  0  0  0
 14 23  1  0  0  0  0
 14 38  1  0  0  0  0
 15 20  1  0  0  0  0
 15 39  1  0  0  0  0
 15 40  1  0  0  0  0
 16 22  1  0  0  0  0
 16 41  1  0  0  0  0
 16 42  1  0  0  0  0
 17 21  1  0  0  0  0
 17 43  1  0  0  0  0
 17 44  1  0  0  0  0
 18 28  1  0  0  0  0
 18 45  1  0  0  0  0
 19 27  2  0  0  0  0
 19 46  1  0  0  0  0
 20 47  1  0  0  0  0
 20 48  1  0  0  0  0
 21 49  1  0  0  0  0
 21 50  1  0  0  0  0
 22 51  1  0  0  0  0
 22 52  1  0  0  0  0
 23 24  2  0  0  0  0
 23 30  1  0  0  0  0
 24 53  1  0  0  0  0
 25 27  1  0  0  0  0
 25 28  2  0  0  0  0
 25 31  1  0  0  0  0
 26 29  1  0  0  0  0
 26 54  1  0  0  0  0
 26 55  1  0  0  0  0
 27 56  1  0  0  0  0
 28 57  1  0  0  0  0
 29 58  1  0  0  0  0
 29 59  1  0  0  0  0
M  END
> <From>
www.bindingDB.org

> <BindingDB Reactant_set_id>
51108784

> <Ligand InChI>
InChI=1S/C18H17F2NO/c19-16-7-4-8-17(20)15(16)11-18(22)21-10-9-14(12-21)13-5-2-1-3-6-13/h1-8,14H,9-12H2

> <Ligand InChI Key>
KRVZKTUHBRUFMA-UHFFFAOYSA-N

> <BindingDB MonomerID>
50452494

> <BindingDB Ligand Name>
CHEMBL4204858

> <Target Name>
Enoyl-[acyl-carrier-protein] reductase [NADPH] FabI [9-251]

> <Target Source Organism According to Curator or DataSource>
Staphylococcus aureus

> <Ki (nM)>


> <IC50 (nM)>
 1900

> <Kd (nM)>


> <EC50 (nM)>


> <kon (M-1-s-1)>


> <koff (s-1)>


> <pH>


> <Temp C>


> <Curation/DataSource>
ChEMBL

> <Article DOI>
10.1016/j.bmc.2017.11.018

> <BindingDB Entry DOI>
10.7270/Q2QF8WF7

> <PMID>
29162308

> <PubChem AID>


> <Patent Number>


> <Authors>
Kwon, J; Mistry, T; Ren, J; Johnson, ME; Mehboob, S

> <Institution>
Novalex Therapeutics

> <Link to Ligand in BindingDB>
http://www.bindingdb.org/bind/chemsearch/marvin/MolStructure.jsp?monomerid=50452494

> <Link to Ligand-Target Pair in BindingDB>
http://www.bindingdb.org/jsp/dbsearch/PrimarySearch_ki.jsp?energyterm=kJ/mole&tag=pol&polymerid=50004708&target=Enoyl-%5Bacyl-carrier-protein%5D+reductase+%5BNADPH%5D+FabI+%5B9-251%5D&column=ki&startPg=0&Increment=50&submit=Search

> <Link to Ligand-Target Pair in BindingDB>
http://www.bindingdb.org/jsp/dbsearch/PrimarySearch_ki.jsp?energyterm=kJ/mole&tag=r21&monomerid=50452494&enzyme=Enoyl-%5Bacyl-carrier-protein%5D+reductase+%5BNADPH%5D+FabI+%5B9-251%5D&column=ki&startPg=0&Increment=50&submit=Search

> <Ligand HET ID in PDB>


> <PDB ID(s) for Ligand-Target Complex>


> <PubChem CID of Ligand>
119099081

> <PubChem SID of Ligand>
433921350

> <ChEBI ID of Ligand>


> <ChEMBL ID of Ligand>


> <DrugBank ID of Ligand>


> <IUPHAR_GRAC ID of Ligand>


> <KEGG ID of Ligand>


> <ZINC ID of Ligand>


> <Number of Protein Chains in Target (bigger than 1 implies a multichain complex)>
1

> <BindingDB Target Chain Sequence>
YVIMGIANKRSIAFGVAKVLDQLGAKLVFTYRKERSRKELEKLLEQLNQPEAHLYQIDVQSDEEVINGFEQIGKDVGNIDGVYHSIAFANMEDLRGRFSETSREGFLLAQDISSYSLTIVAHEAKKLMPEGGSIVATTYLGGEFAVQNYNVMGVAKASLEANVKYLALDLGPDNIRVNAISAGPIRTLSAKGVGGFNTILKEIEERAPLKRNVDQVEVGKTAAYLLSDLSSGVTGENIHVDSG

> <PDB ID(s) of Target Chain>
3GNS,3GNT,3GR6,4ALI,4ALJ,4ALK,4ALL,4ALM,4ALN,4BNF,4BNG,4BNH,4BNI,4BNJ,4BNK,4BNL,4BNM,4BNN,4CUZ,4CV0,4CV1,4D41,4D42,4D43,4D44,4D45,4FS3,4NZ9,6TBB,6TBC,6YUR

> <UniProt (SwissProt) Recommended Name of Target Chain>
Enoyl-[acyl-carrier-protein] reductase [NADPH] FabI

> <UniProt (SwissProt) Entry Name of Target Chain>
FABI_STAAR

> <UniProt (SwissProt) Primary ID of Target Chain>
Q6GI75

> <UniProt (SwissProt) Secondary ID(s) of Target Chain>


> <UniProt (SwissProt) Alternative ID(s) of Target Chain>


> <UniProt (TrEMBL) Submitted Name of Target Chain>


> <UniProt (TrEMBL) Entry Name of Target Chain>


> <UniProt (TrEMBL) Primary ID of Target Chain>


> <UniProt (TrEMBL) Secondary ID(s) of Target Chain>


> <UniProt (TrEMBL) Alternative ID(s) of Target Chain>


$$$$
BindingDB_50452512_mol_1

Vconf v2.0 Academic SN VC001-00000579
 38 39  0  0  0  0  0  0  0  0999 V2000
    3.1270   -3.5920    0.5900 N   0  0  0  0  0  0  0  0  0  0  0
    4.3300   -2.9780    0.5640 C   0  0  0  0  0  0  0  0  0  0  0
    4.3790   -1.5730    0.5820 C   0  0  0  0  0  0  0  0  0  0  0
    1.9490   -2.9380    0.6350 C   0  0  0  0  0  0  0  0  0  0  0
    1.9760   -1.5800    0.6570 N   0  0  0  0  0  0  0  0  0  0  0
    3.1460   -0.8900    0.6300 C   0  0  0  0  0  0  0  0  0  0  0
    5.5110   -0.9350    0.5520 C   0  0  0  0  0  0  0  0  0  0  0
    5.4270   -3.7760    0.5080 N   0  0  0  0  0  0  0  0  0  0  0
    6.5190   -0.3820    0.5260 N   0  0  0  0  0  0  0  0  0  0  0
    0.6860   -3.7150    0.6620 C   0  0  0  0  0  0  0  0  0  0  0
    3.0930    0.4630    0.6490 O   0  0  0  0  0  0  0  0  0  0  0
    8.1910   -7.4550    1.1920 N   0  0  0  0  0  0  0  0  0  0  0
    6.5650   -5.9030    0.3570 C   0  0  0  0  0  0  0  0  0  0  0
    5.2810   -5.1970    0.4760 C   0  0  0  0  0  0  0  0  0  0  0
    7.0110   -6.8020    1.3470 C   0  0  0  0  0  0  0  0  0  0  0
   -0.0820   -3.3900    1.9590 C   0  0  0  0  0  0  0  0  0  0  0
   -0.1660   -3.3560   -0.5730 C   0  0  0  0  0  0  0  0  0  0  0
    0.9480   -5.2420    0.6310 C   0  0  0  0  0  0  0  0  0  0  0
    8.9780   -7.2880    0.1000 C   0  0  0  0  0  0  0  0  0  0  0
    7.3570   -5.7350   -0.7940 C   0  0  0  0  0  0  0  0  0  0  0
    8.5730   -6.4230   -0.9280 C   0  0  0  0  0  0  0  0  0  0  0
    6.3100   -3.3730    0.4730 H   0  0  0  0  0  0  0  0  0  0  0
    2.1890    0.8400    0.6630 H   0  0  0  0  0  0  0  0  0  0  0
    4.7570   -5.5140    1.3780 H   0  0  0  0  0  0  0  0  0  0  0
    4.6630   -5.4720   -0.3800 H   0  0  0  0  0  0  0  0  0  0  0
    6.4460   -6.9730    2.1800 H   0  0  0  0  0  0  0  0  0  0  0
   -1.0060   -3.9670    2.0010 H   0  0  0  0  0  0  0  0  0  0  0
    0.5320   -3.6460    2.8250 H   0  0  0  0  0  0  0  0  0  0  0
   -0.3270   -2.3290    1.9950 H   0  0  0  0  0  0  0  0  0  0  0
   -1.1090   -3.9020   -0.5490 H   0  0  0  0  0  0  0  0  0  0  0
   -0.3800   -2.2870   -0.5860 H   0  0  0  0  0  0  0  0  0  0  0
    0.3720   -3.6240   -1.4840 H   0  0  0  0  0  0  0  0  0  0  0
    0.0010   -5.7860    0.6430 H   0  0  0  0  0  0  0  0  0  0  0
    1.4960   -5.5100   -0.2740 H   0  0  0  0  0  0  0  0  0  0  0
    1.5370   -5.5390    1.5010 H   0  0  0  0  0  0  0  0  0  0  0
    9.8580   -7.7960    0.0230 H   0  0  0  0  0  0  0  0  0  0  0
    7.0390   -5.1180   -1.5420 H   0  0  0  0  0  0  0  0  0  0  0
    9.1450   -6.3020   -1.7650 H   0  0  0  0  0  0  0  0  0  0  0
  1  2  2  0  0  0  0
  1  4  1  0  0  0  0
  2  3  1  0  0  0  0
  2  8  1  0  0  0  0
  3  6  2  0  0  0  0
  3  7  1  0  0  0  0
  4  5  2  0  0  0  0
  4 10  1  0  0  0  0
  5  6  1  0  0  0  0
  6 11  1  0  0  0  0
  7  9  3  0  0  0  0
  8 14  1  0  0  0  0
  8 22  1  0  0  0  0
 10 16  1  0  0  0  0
 10 17  1  0  0  0  0
 10 18  1  0  0  0  0
 11 23  1  0  0  0  0
 12 15  1  0  0  0  0
 12 19  2  0  0  0  0
 13 14  1  0  0  0  0
 13 15  2  0  0  0  0
 13 20  1  0  0  0  0
 14 24  1  0  0  0  0
 14 25  1  0  0  0  0
 15 26  1  0  0  0  0
 16 27  1  0  0  0  0
 16 28  1  0  0  0  0
 16 29  1  0  0  0  0
 17 30  1  0  0  0  0
 17 31  1  0  0  0  0
 17 32  1  0  0  0  0
 18 33  1  0  0  0  0
 18 34  1  0  0  0  0
 18 35  1  0  0  0  0
 19 21  1  0  0  0  0
 19 36  1  0  0  0  0
 20 21  2  0  0  0  0
 20 37  1  0  0  0  0
 21 38  1  0  0  0  0
M  END
> <From>
www.bindingDB.org

> <BindingDB Reactant_set_id>
51108818

> <Ligand InChI>
InChI=1S/C19H17F2NO3/c20-15-2-1-3-16(21)14(15)9-19(23)22-7-6-13(10-22)12-4-5-17-18(8-12)25-11-24-17/h1-5,8,13H,6-7,9-11H2

> <Ligand InChI Key>
LTCLFSYURZQSIA-UHFFFAOYSA-N

> <BindingDB MonomerID>
50452512

> <BindingDB Ligand Name>
CHEMBL4205638

> <Target Name>
Enoyl-[acyl-carrier-protein] reductase [NADPH] FabI [9-251]

> <Target Source Organism According to Curator or DataSource>
Staphylococcus aureus

> <Ki (nM)>


> <IC50 (nM)>
 2300

> <Kd (nM)>


> <EC50 (nM)>


> <kon (M-1-s-1)>


> <koff (s-1)>


> <pH>


> <Temp C>


> <Curation/DataSource>
ChEMBL

> <Article DOI>
10.1016/j.bmc.2017.11.018

> <BindingDB Entry DOI>
10.7270/Q2QF8WF7

> <PMID>
29162308

> <PubChem AID>


> <Patent Number>


> <Authors>
Kwon, J; Mistry, T; Ren, J; Johnson, ME; Mehboob, S

> <Institution>
Novalex Therapeutics

> <Link to Ligand in BindingDB>
http://www.bindingdb.org/bind/chemsearch/marvin/MolStructure.jsp?monomerid=50452512

> <Link to Ligand-Target Pair in BindingDB>
http://www.bindingdb.org/jsp/dbsearch/PrimarySearch_ki.jsp?energyterm=kJ/mole&tag=pol&polymerid=50004708&target=Enoyl-%5Bacyl-carrier-protein%5D+reductase+%5BNADPH%5D+FabI+%5B9-251%5D&column=ki&startPg=0&Increment=50&submit=Search

> <Link to Ligand-Target Pair in BindingDB>
http://www.bindingdb.org/jsp/dbsearch/PrimarySearch_ki.jsp?energyterm=kJ/mole&tag=r21&monomerid=50452512&enzyme=Enoyl-%5Bacyl-carrier-protein%5D+reductase+%5BNADPH%5D+FabI+%5B9-251%5D&column=ki&startPg=0&Increment=50&submit=Search

> <Ligand HET ID in PDB>


> <PDB ID(s) for Ligand-Target Complex>


> <PubChem CID of Ligand>
119106339

> <PubChem SID of Ligand>
433921368

> <ChEBI ID of Ligand>


> <ChEMBL ID of Ligand>


> <DrugBank ID of Ligand>


> <IUPHAR_GRAC ID of Ligand>


> <KEGG ID of Ligand>


> <ZINC ID of Ligand>


> <Number of Protein Chains in Target (bigger than 1 implies a multichain complex)>
1

> <BindingDB Target Chain Sequence>
YVIMGIANKRSIAFGVAKVLDQLGAKLVFTYRKERSRKELEKLLEQLNQPEAHLYQIDVQSDEEVINGFEQIGKDVGNIDGVYHSIAFANMEDLRGRFSETSREGFLLAQDISSYSLTIVAHEAKKLMPEGGSIVATTYLGGEFAVQNYNVMGVAKASLEANVKYLALDLGPDNIRVNAISAGPIRTLSAKGVGGFNTILKEIEERAPLKRNVDQVEVGKTAAYLLSDLSSGVTGENIHVDSG

> <PDB ID(s) of Target Chain>
3GNS,3GNT,3GR6,4ALI,4ALJ,4ALK,4ALL,4ALM,4ALN,4BNF,4BNG,4BNH,4BNI,4BNJ,4BNK,4BNL,4BNM,4BNN,4CUZ,4CV0,4CV1,4D41,4D42,4D43,4D44,4D45,4FS3,4NZ9,6TBB,6TBC,6YUR

> <UniProt (SwissProt) Recommended Name of Target Chain>
Enoyl-[acyl-carrier-protein] reductase [NADPH] FabI

> <UniProt (SwissProt) Entry Name of Target Chain>
FABI_STAAR

> <UniProt (SwissProt) Primary ID of Target Chain>
Q6GI75

> <UniProt (SwissProt) Secondary ID(s) of Target Chain>


> <UniProt (SwissProt) Alternative ID(s) of Target Chain>


> <UniProt (TrEMBL) Submitted Name of Target Chain>


> <UniProt (TrEMBL) Entry Name of Target Chain>


> <UniProt (TrEMBL) Primary ID of Target Chain>


> <UniProt (TrEMBL) Secondary ID(s) of Target Chain>


> <UniProt (TrEMBL) Alternative ID(s) of Target Chain>


$$$$
BindingDB_50452516_mol_1

Vconf v2.0 Academic SN VC001-00000579
 29 30  0  0  0  0  0  0  0  0999 V2000
    3.8700   -2.7740    0.5790 C   0  0  0  0  0  0  0  0  0  0  0
    3.9470   -1.3660    0.5840 C   0  0  0  0  0  0  0  0  0  0  0
    2.6550   -3.3670    0.6170 N   0  0  0  0  0  0  0  0  0  0  0
    2.7310   -0.6560    0.6250 C   0  0  0  0  0  0  0  0  0  0  0
    1.5510   -1.3240    0.6620 N   0  0  0  0  0  0  0  0  0  0  0
    1.4990   -2.6760    0.6610 C   0  0  0  0  0  0  0  0  0  0  0
    5.0870   -0.7480    0.5470 C   0  0  0  0  0  0  0  0  0  0  0
    4.9540   -3.5930    0.5470 N   0  0  0  0  0  0  0  0  0  0  0
    6.0980   -0.2100    0.5140 N   0  0  0  0  0  0  0  0  0  0  0
    2.6990    0.6960    0.6300 O   0  0  0  0  0  0  0  0  0  0  0
    8.4860   -7.1100    0.5790 N   0  0  0  0  0  0  0  0  0  0  0
    4.8030   -5.0120    0.5150 C   0  0  0  0  0  0  0  0  0  0  0
    6.0960   -5.7180    0.5480 C   0  0  0  0  0  0  0  0  0  0  0
    0.2370   -3.4100    0.7090 C   0  0  0  0  0  0  0  0  0  0  0
    8.2370   -6.2690   -0.4550 C   0  0  0  0  0  0  0  0  0  0  0
    7.6110   -7.3000    1.5980 C   0  0  0  0  0  0  0  0  0  0  0
    6.3920   -6.6030    1.6030 C   0  0  0  0  0  0  0  0  0  0  0
    7.0300   -5.5510   -0.4930 C   0  0  0  0  0  0  0  0  0  0  0
    5.8470   -3.2100    0.5450 H   0  0  0  0  0  0  0  0  0  0  0
    1.7960    1.0710    0.6590 H   0  0  0  0  0  0  0  0  0  0  0
    4.1910   -5.3190    1.3680 H   0  0  0  0  0  0  0  0  0  0  0
    4.2760   -5.2950   -0.3990 H   0  0  0  0  0  0  0  0  0  0  0
   -0.6030   -2.7180    0.7080 H   0  0  0  0  0  0  0  0  0  0  0
    0.1660   -4.0660   -0.1560 H   0  0  0  0  0  0  0  0  0  0  0
    0.2050   -4.0170    1.6100 H   0  0  0  0  0  0  0  0  0  0  0
    8.9200   -6.1650   -1.2060 H   0  0  0  0  0  0  0  0  0  0  0
    7.8310   -7.9510    2.3520 H   0  0  0  0  0  0  0  0  0  0  0
    5.7230   -6.7470    2.3600 H   0  0  0  0  0  0  0  0  0  0  0
    6.8280   -4.9230   -1.2710 H   0  0  0  0  0  0  0  0  0  0  0
  1  2  1  0  0  0  0
  1  3  2  0  0  0  0
  1  8  1  0  0  0  0
  2  4  2  0  0  0  0
  2  7  1  0  0  0  0
  3  6  1  0  0  0  0
  4  5  1  0  0  0  0
  4 10  1  0  0  0  0
  5  6  2  0  0  0  0
  6 14  1  0  0  0  0
  7  9  3  0  0  0  0
  8 12  1  0  0  0  0
  8 19  1  0  0  0  0
 10 20  1  0  0  0  0
 11 15  1  0  0  0  0
 11 16  2  0  0  0  0
 12 13  1  0  0  0  0
 12 21  1  0  0  0  0
 12 22  1  0  0  0  0
 13 17  2  0  0  0  0
 13 18  1  0  0  0  0
 14 23  1  0  0  0  0
 14 24  1  0  0  0  0
 14 25  1  0  0  0  0
 15 18  2  0  0  0  0
 15 26  1  0  0  0  0
 16 17  1  0  0  0  0
 16 27  1  0  0  0  0
 17 28  1  0  0  0  0
 18 29  1  0  0  0  0
M  END
> <From>
www.bindingDB.org

> <BindingDB Reactant_set_id>
51108802

> <Ligand InChI>
InChI=1S/C19H18ClNO3/c20-16-4-2-1-3-14(16)10-19(22)21-8-7-15(11-21)13-5-6-17-18(9-13)24-12-23-17/h1-6,9,15H,7-8,10-12H2

> <Ligand InChI Key>
UTQHYSKDYWZBHC-UHFFFAOYSA-N

> <BindingDB MonomerID>
50452516

> <BindingDB Ligand Name>
CHEMBL4211939

> <Target Name>
Enoyl-[acyl-carrier-protein] reductase [NADPH] FabI [9-251]

> <Target Source Organism According to Curator or DataSource>
Staphylococcus aureus

> <Ki (nM)>


> <IC50 (nM)>
 2500

> <Kd (nM)>


> <EC50 (nM)>


> <kon (M-1-s-1)>


> <koff (s-1)>


> <pH>


> <Temp C>


> <Curation/DataSource>
ChEMBL

> <Article DOI>
10.1016/j.bmc.2017.11.018

> <BindingDB Entry DOI>
10.7270/Q2QF8WF7

> <PMID>
29162308

> <PubChem AID>


> <Patent Number>


> <Authors>
Kwon, J; Mistry, T; Ren, J; Johnson, ME; Mehboob, S

> <Institution>
Novalex Therapeutics

> <Link to Ligand in BindingDB>
http://www.bindingdb.org/bind/chemsearch/marvin/MolStructure.jsp?monomerid=50452516

> <Link to Ligand-Target Pair in BindingDB>
http://www.bindingdb.org/jsp/dbsearch/PrimarySearch_ki.jsp?energyterm=kJ/mole&tag=pol&polymerid=50004708&target=Enoyl-%5Bacyl-carrier-protein%5D+reductase+%5BNADPH%5D+FabI+%5B9-251%5D&column=ki&startPg=0&Increment=50&submit=Search

> <Link to Ligand-Target Pair in BindingDB>
http://www.bindingdb.org/jsp/dbsearch/PrimarySearch_ki.jsp?energyterm=kJ/mole&tag=r21&monomerid=50452516&enzyme=Enoyl-%5Bacyl-carrier-protein%5D+reductase+%5BNADPH%5D+FabI+%5B9-251%5D&column=ki&startPg=0&Increment=50&submit=Search

> <Ligand HET ID in PDB>


> <PDB ID(s) for Ligand-Target Complex>


> <PubChem CID of Ligand>
110667412

> <PubChem SID of Ligand>
433921372

> <ChEBI ID of Ligand>


> <ChEMBL ID of Ligand>


> <DrugBank ID of Ligand>


> <IUPHAR_GRAC ID of Ligand>


> <KEGG ID of Ligand>


> <ZINC ID of Ligand>


> <Number of Protein Chains in Target (bigger than 1 implies a multichain complex)>
1

> <BindingDB Target Chain Sequence>
YVIMGIANKRSIAFGVAKVLDQLGAKLVFTYRKERSRKELEKLLEQLNQPEAHLYQIDVQSDEEVINGFEQIGKDVGNIDGVYHSIAFANMEDLRGRFSETSREGFLLAQDISSYSLTIVAHEAKKLMPEGGSIVATTYLGGEFAVQNYNVMGVAKASLEANVKYLALDLGPDNIRVNAISAGPIRTLSAKGVGGFNTILKEIEERAPLKRNVDQVEVGKTAAYLLSDLSSGVTGENIHVDSG

> <PDB ID(s) of Target Chain>
3GNS,3GNT,3GR6,4ALI,4ALJ,4ALK,4ALL,4ALM,4ALN,4BNF,4BNG,4BNH,4BNI,4BNJ,4BNK,4BNL,4BNM,4BNN,4CUZ,4CV0,4CV1,4D41,4D42,4D43,4D44,4D45,4FS3,4NZ9,6TBB,6TBC,6YUR

> <UniProt (SwissProt) Recommended Name of Target Chain>
Enoyl-[acyl-carrier-protein] reductase [NADPH] FabI

> <UniProt (SwissProt) Entry Name of Target Chain>
FABI_STAAR

> <UniProt (SwissProt) Primary ID of Target Chain>
Q6GI75

> <UniProt (SwissProt) Secondary ID(s) of Target Chain>


> <UniProt (SwissProt) Alternative ID(s) of Target Chain>


> <UniProt (TrEMBL) Submitted Name of Target Chain>


> <UniProt (TrEMBL) Entry Name of Target Chain>


> <UniProt (TrEMBL) Primary ID of Target Chain>


> <UniProt (TrEMBL) Secondary ID(s) of Target Chain>


> <UniProt (TrEMBL) Alternative ID(s) of Target Chain>


$$$$
BindingDB_50452506_mol_1

Vconf v2.0 Academic SN VC001-00000579
 32 33  0  0  0  0  0  0  0  0999 V2000
    3.7430   -2.8510    0.5850 C   0  0  0  0  0  0  0  0  0  0  0
    3.9570   -1.4590    0.6130 C   0  0  0  0  0  0  0  0  0  0  0
    2.4760   -3.3360    0.6190 N   0  0  0  0  0  0  0  0  0  0  0
    2.8150   -0.6390    0.6790 C   0  0  0  0  0  0  0  0  0  0  0
    1.5790   -1.1870    0.7110 N   0  0  0  0  0  0  0  0  0  0  0
    1.3950   -2.5260    0.6810 C   0  0  0  0  0  0  0  0  0  0  0
    2.9080    0.7080    0.7130 O   0  0  0  0  0  0  0  0  0  0  0
    4.7790   -3.7190    0.5240 N   0  0  0  0  0  0  0  0  0  0  0
    5.5130   -0.7830    0.5710 Cl  0  0  0  0  0  0  0  0  0  0  0
    4.6110   -5.1280    0.4940 C   0  0  0  0  0  0  0  0  0  0  0
    0.0510   -3.1000    0.7150 C   0  0  0  0  0  0  0  0  0  0  0
    5.8810   -7.2750    0.3300 C   0  0  0  0  0  0  0  0  0  0  0
    5.9910   -5.8050    0.4170 C   0  0  0  0  0  0  0  0  0  0  0
    6.2960   -7.9590   -0.8300 C   0  0  0  0  0  0  0  0  0  0  0
    5.3650   -8.0140    1.4150 C   0  0  0  0  0  0  0  0  0  0  0
    5.2620   -9.4130    1.3390 C   0  0  0  0  0  0  0  0  0  0  0
    6.1930   -9.3590   -0.9080 C   0  0  0  0  0  0  0  0  0  0  0
    5.6750  -10.0860    0.1770 C   0  0  0  0  0  0  0  0  0  0  0
    2.0430    1.1640    0.7590 H   0  0  0  0  0  0  0  0  0  0  0
    5.6800   -3.3610    0.5000 H   0  0  0  0  0  0  0  0  0  0  0
    4.0890   -5.4500    1.3980 H   0  0  0  0  0  0  0  0  0  0  0
    4.0200   -5.4050   -0.3820 H   0  0  0  0  0  0  0  0  0  0  0
   -0.6950   -2.3070    0.7710 H   0  0  0  0  0  0  0  0  0  0  0
   -0.1150   -3.6870   -0.1880 H   0  0  0  0  0  0  0  0  0  0  0
   -0.0450   -3.7450    1.5880 H   0  0  0  0  0  0  0  0  0  0  0
    6.5150   -5.4130   -0.4570 H   0  0  0  0  0  0  0  0  0  0  0
    6.5690   -5.5420    1.3050 H   0  0  0  0  0  0  0  0  0  0  0
    6.6730   -7.4390   -1.6240 H   0  0  0  0  0  0  0  0  0  0  0
    5.0650   -7.5330    2.2640 H   0  0  0  0  0  0  0  0  0  0  0
    4.8870   -9.9410    2.1280 H   0  0  0  0  0  0  0  0  0  0  0
    6.4950   -9.8470   -1.7520 H   0  0  0  0  0  0  0  0  0  0  0
    5.6000  -11.1020    0.1210 H   0  0  0  0  0  0  0  0  0  0  0
  1  2  1  0  0  0  0
  1  3  2  0  0  0  0
  1  8  1  0  0  0  0
  2  4  2  0  0  0  0
  2  9  1  0  0  0  0
  3  6  1  0  0  0  0
  4  5  1  0  0  0  0
  4  7  1  0  0  0  0
  5  6  2  0  0  0  0
  6 11  1  0  0  0  0
  7 19  1  0  0  0  0
  8 10  1  0  0  0  0
  8 20  1  0  0  0  0
 10 13  1  0  0  0  0
 10 21  1  0  0  0  0
 10 22  1  0  0  0  0
 11 23  1  0  0  0  0
 11 24  1  0  0  0  0
 11 25  1  0  0  0  0
 12 13  1  0  0  0  0
 12 14  2  0  0  0  0
 12 15  1  0  0  0  0
 13 26  1  0  0  0  0
 13 27  1  0  0  0  0
 14 17  1  0  0  0  0
 14 28  1  0  0  0  0
 15 16  2  0  0  0  0
 15 29  1  0  0  0  0
 16 18  1  0  0  0  0
 16 30  1  0  0  0  0
 17 18  2  0  0  0  0
 17 31  1  0  0  0  0
 18 32  1  0  0  0  0
M  END
> <From>
www.bindingDB.org

> <BindingDB Reactant_set_id>
51108781

> <Ligand InChI>
InChI=1S/C19H18FNO3/c20-16-4-2-1-3-14(16)10-19(22)21-8-7-15(11-21)13-5-6-17-18(9-13)24-12-23-17/h1-6,9,15H,7-8,10-12H2

> <Ligand InChI Key>
FRTHQVBBVQGYMV-UHFFFAOYSA-N

> <BindingDB MonomerID>
50452506

> <BindingDB Ligand Name>
CHEMBL4216771

> <Target Name>
Enoyl-[acyl-carrier-protein] reductase [NADPH] FabI [9-251]

> <Target Source Organism According to Curator or DataSource>
Staphylococcus aureus

> <Ki (nM)>


> <IC50 (nM)>
 2700

> <Kd (nM)>


> <EC50 (nM)>


> <kon (M-1-s-1)>


> <koff (s-1)>


> <pH>


> <Temp C>


> <Curation/DataSource>
ChEMBL

> <Article DOI>
10.1016/j.bmc.2017.11.018

> <BindingDB Entry DOI>
10.7270/Q2QF8WF7

> <PMID>
29162308

> <PubChem AID>


> <Patent Number>


> <Authors>
Kwon, J; Mistry, T; Ren, J; Johnson, ME; Mehboob, S

> <Institution>
Novalex Therapeutics

> <Link to Ligand in BindingDB>
http://www.bindingdb.org/bind/chemsearch/marvin/MolStructure.jsp?monomerid=50452506

> <Link to Ligand-Target Pair in BindingDB>
http://www.bindingdb.org/jsp/dbsearch/PrimarySearch_ki.jsp?energyterm=kJ/mole&tag=pol&polymerid=50004708&target=Enoyl-%5Bacyl-carrier-protein%5D+reductase+%5BNADPH%5D+FabI+%5B9-251%5D&column=ki&startPg=0&Increment=50&submit=Search

> <Link to Ligand-Target Pair in BindingDB>
http://www.bindingdb.org/jsp/dbsearch/PrimarySearch_ki.jsp?energyterm=kJ/mole&tag=r21&monomerid=50452506&enzyme=Enoyl-%5Bacyl-carrier-protein%5D+reductase+%5BNADPH%5D+FabI+%5B9-251%5D&column=ki&startPg=0&Increment=50&submit=Search

> <Ligand HET ID in PDB>


> <PDB ID(s) for Ligand-Target Complex>


> <PubChem CID of Ligand>
110667410

> <PubChem SID of Ligand>
433921362

> <ChEBI ID of Ligand>


> <ChEMBL ID of Ligand>


> <DrugBank ID of Ligand>


> <IUPHAR_GRAC ID of Ligand>


> <KEGG ID of Ligand>


> <ZINC ID of Ligand>


> <Number of Protein Chains in Target (bigger than 1 implies a multichain complex)>
1

> <BindingDB Target Chain Sequence>
YVIMGIANKRSIAFGVAKVLDQLGAKLVFTYRKERSRKELEKLLEQLNQPEAHLYQIDVQSDEEVINGFEQIGKDVGNIDGVYHSIAFANMEDLRGRFSETSREGFLLAQDISSYSLTIVAHEAKKLMPEGGSIVATTYLGGEFAVQNYNVMGVAKASLEANVKYLALDLGPDNIRVNAISAGPIRTLSAKGVGGFNTILKEIEERAPLKRNVDQVEVGKTAAYLLSDLSSGVTGENIHVDSG

> <PDB ID(s) of Target Chain>
3GNS,3GNT,3GR6,4ALI,4ALJ,4ALK,4ALL,4ALM,4ALN,4BNF,4BNG,4BNH,4BNI,4BNJ,4BNK,4BNL,4BNM,4BNN,4CUZ,4CV0,4CV1,4D41,4D42,4D43,4D44,4D45,4FS3,4NZ9,6TBB,6TBC,6YUR

> <UniProt (SwissProt) Recommended Name of Target Chain>
Enoyl-[acyl-carrier-protein] reductase [NADPH] FabI

> <UniProt (SwissProt) Entry Name of Target Chain>
FABI_STAAR

> <UniProt (SwissProt) Primary ID of Target Chain>
Q6GI75

> <UniProt (SwissProt) Secondary ID(s) of Target Chain>


> <UniProt (SwissProt) Alternative ID(s) of Target Chain>


> <UniProt (TrEMBL) Submitted Name of Target Chain>


> <UniProt (TrEMBL) Entry Name of Target Chain>


> <UniProt (TrEMBL) Primary ID of Target Chain>


> <UniProt (TrEMBL) Secondary ID(s) of Target Chain>


> <UniProt (TrEMBL) Alternative ID(s) of Target Chain>


$$$$
25

Vconf v2.0 Academic SN VC001-00000579
 34 36  0  0  0  0  0  0  0  0999 V2000
   -2.9690    3.0890    0.7620 C   0  0  0  0  0  0  0  0  0  0  0
   -4.2190    2.4530    0.6910 C   0  0  0  0  0  0  0  0  0  0  0
   -4.3230    1.0480    0.5510 C   0  0  0  0  0  0  0  0  0  0  0
   -3.1190    0.3050    0.4910 C   0  0  0  0  0  0  0  0  0  0  0
   -1.8670    0.9390    0.5610 C   0  0  0  0  0  0  0  0  0  0  0
   -1.7820    2.3400    0.6860 C   0  0  0  0  0  0  0  0  0  0  0
   -2.9120    4.4320    0.9030 O   0  0  0  0  0  0  0  0  0  0  0
   -0.5950    3.0170    0.7820 O   0  0  0  0  0  0  0  0  0  0  0
    0.5690    2.6530    0.1550 C   0  0  0  0  0  0  0  0  0  0  0
    1.7910    2.7190    0.8610 C   0  0  0  0  0  0  0  0  0  0  0
    0.5790    2.2640   -1.2010 C   0  0  0  0  0  0  0  0  0  0  0
    1.7830    1.9230   -1.8400 C   0  0  0  0  0  0  0  0  0  0  0
    2.9980    1.9770   -1.1320 C   0  0  0  0  0  0  0  0  0  0  0
    2.9980    2.3780    0.2200 C   0  0  0  0  0  0  0  0  0  0  0
    1.8350    3.2000    2.4850 Cl  0  0  0  0  0  0  0  0  0  0  0
    4.1140    1.6660   -1.7230 C   0  0  0  0  0  0  0  0  0  0  0
    5.0990    1.3920   -2.2450 N   0  0  0  0  0  0  0  0  0  0  0
   -5.5970    0.4040    0.4790 C   0  0  0  0  0  0  0  0  0  0  0
   -5.7990   -0.8840    1.0300 C   0  0  0  0  0  0  0  0  0  0  0
   -7.0590   -1.4960    0.9490 C   0  0  0  0  0  0  0  0  0  0  0
   -7.9420    0.3830   -0.2040 C   0  0  0  0  0  0  0  0  0  0  0
   -6.7000    1.0330   -0.1460 C   0  0  0  0  0  0  0  0  0  0  0
   -8.0820   -0.8490    0.3400 N   0  0  0  0  0  0  0  0  0  0  0
   -5.0590    3.0300    0.7570 H   0  0  0  0  0  0  0  0  0  0  0
   -3.1420   -0.7100    0.3850 H   0  0  0  0  0  0  0  0  0  0  0
   -1.0180    0.3760    0.5230 H   0  0  0  0  0  0  0  0  0  0  0
   -2.0000    4.7890    0.9510 H   0  0  0  0  0  0  0  0  0  0  0
   -0.2940    2.2320   -1.7280 H   0  0  0  0  0  0  0  0  0  0  0
    1.7610    1.6410   -2.8230 H   0  0  0  0  0  0  0  0  0  0  0
    3.8780    2.4230    0.7400 H   0  0  0  0  0  0  0  0  0  0  0
   -5.0410   -1.3790    1.5030 H   0  0  0  0  0  0  0  0  0  0  0
   -7.2070   -2.4230    1.3490 H   0  0  0  0  0  0  0  0  0  0  0
   -8.7380    0.8350   -0.6550 H   0  0  0  0  0  0  0  0  0  0  0
   -6.6080    1.9570   -0.5710 H   0  0  0  0  0  0  0  0  0  0  0
  1  2  2  0  0  0  0
  1  6  1  0  0  0  0
  1  7  1  0  0  0  0
  2  3  1  0  0  0  0
  2 24  1  0  0  0  0
  3  4  2  0  0  0  0
  3 18  1  0  0  0  0
  4  5  1  0  0  0  0
  4 25  1  0  0  0  0
  5  6  2  0  0  0  0
  5 26  1  0  0  0  0
  6  8  1  0  0  0  0
  7 27  1  0  0  0  0
  8  9  1  0  0  0  0
  9 10  2  0  0  0  0
  9 11  1  0  0  0  0
 10 14  1  0  0  0  0
 10 15  1  0  0  0  0
 11 12  2  0  0  0  0
 11 28  1  0  0  0  0
 12 13  1  0  0  0  0
 12 29  1  0  0  0  0
 13 14  2  0  0  0  0
 13 16  1  0  0  0  0
 14 30  1  0  0  0  0
 16 17  3  0  0  0  0
 18 19  1  0  0  0  0
 18 22  2  0  0  0  0
 19 20  2  0  0  0  0
 19 31  1  0  0  0  0
 20 23  1  0  0  0  0
 20 32  1  0  0  0  0
 21 22  1  0  0  0  0
 21 23  2  0  0  0  0
 21 33  1  0  0  0  0
 22 34  1  0  0  0  0
M  END
> <From>
www.bindingDB.org

> <BindingDB Reactant_set_id>
46077

> <Ligand InChI>
InChI=1S/C18H11ClN2O2/c19-15-9-12(11-20)1-3-17(15)23-18-4-2-14(10-16(18)22)13-5-7-21-8-6-13/h1-10,22H

> <Ligand InChI Key>
XNNKBVIHPSHNHS-UHFFFAOYSA-N

> <BindingDB MonomerID>
25424

> <BindingDB Ligand Name>
3-chloro-4-[2-hydroxy-4-(pyridin-4-yl)phenoxy]benzonitrile::Triclosan derivative, 25

> <Target Name>
Enoyl-ACP reductase

> <Target Source Organism According to Curator or DataSource>
Plasmodium falciparum

> <Ki (nM)>


> <IC50 (nM)>
 2800

> <Kd (nM)>


> <EC50 (nM)>


> <kon (M-1-s-1)>


> <koff (s-1)>


> <pH>
7.9

> <Temp C>
25.00

> <Curation/DataSource>
Curated from the literature by BindingDB

> <Article DOI>
10.1074/jbc.M701813200

> <BindingDB Entry DOI>
10.7270/Q22V2DFD

> <PMID>
17567585

> <PubChem AID>
aid1798551

> <Patent Number>


> <Authors>
Freundlich, JS; Wang, F; Tsai, HC; Kuo, M; Shieh, HM; Anderson, JW; Nkrumah, LJ; Valderramos, JC; Yu, M; Kumar, TR; Valderramos, SG; Jacobs, WR; Schiehser, GA; Jacobus, DP; Fidock, DA; Sacchettini, JC

> <Institution>
Jacobus Pharmaceutical Company

> <Link to Ligand in BindingDB>
http://www.bindingdb.org/bind/chemsearch/marvin/MolStructure.jsp?monomerid=25424

> <Link to Ligand-Target Pair in BindingDB>
http://www.bindingdb.org/jsp/dbsearch/PrimarySearch_ki.jsp?energyterm=kJ/mole&tag=pol&polymerid=2820&target=Enoyl-ACP+reductase&column=ki&startPg=0&Increment=50&submit=Search

> <Link to Ligand-Target Pair in BindingDB>
http://www.bindingdb.org/jsp/dbsearch/PrimarySearch_ki.jsp?energyterm=kJ/mole&tag=r21&monomerid=25424&enzyme=Enoyl-ACP+reductase&column=ki&startPg=0&Increment=50&submit=Search

> <Ligand HET ID in PDB>


> <PDB ID(s) for Ligand-Target Complex>


> <PubChem CID of Ligand>
25023971

> <PubChem SID of Ligand>
56374563

> <ChEBI ID of Ligand>


> <ChEMBL ID of Ligand>


> <DrugBank ID of Ligand>


> <IUPHAR_GRAC ID of Ligand>


> <KEGG ID of Ligand>


> <ZINC ID of Ligand>
ZINC29060879

> <Number of Protein Chains in Target (bigger than 1 implies a multichain complex)>
1

> <BindingDB Target Chain Sequence>
MNKISQRLLFLFLHFYTTVCFIQNNTQKTFHNVLQNEQIRGKEKAFYRKEKRENIFIGNK
MKHVHNMNNTHNNNHYMEKEEQDASNINKIKEENKNEDICFIAGIGDTNGYGWGIAKELS
KRNVKIIFGIWPPVYNIFMKNYKNGKFDNDMIIDKDKKMNILDMLPFDASFDTANDIDEE
TKNNKRYNMLQNYTIEDVANLIHQKYGKINMLVHSLANAKEVQKDLLNTSRKGYLDALSK
SSYSLISLCKYFVNIMKPQSSIISLTYHASQKVVPGYGGGMSSAKAALESDTRVLAYHLG
RNYNIRINTISAGPLKSRAATAINKLNNTYENNTNQNKNRNRHDVHNIMNNSGEKEEKKI
SASQNYTFIDYAIEYSEKYAPLRQKLLSTDIGSVASFLLSRESRAITGQTIYVDNGLNIM
FLPDDIYRNENE

> <PDB ID(s) of Target Chain>
1NHG,1NHW,1NNU,1UH5,1V35,2FOI,2NQ8,3LSY,3LT0,3LT1,3LT2,3LT4

> <UniProt (SwissProt) Recommended Name of Target Chain>


> <UniProt (SwissProt) Entry Name of Target Chain>


> <UniProt (SwissProt) Primary ID of Target Chain>


> <UniProt (SwissProt) Secondary ID(s) of Target Chain>


> <UniProt (SwissProt) Alternative ID(s) of Target Chain>


> <UniProt (TrEMBL) Submitted Name of Target Chain>
Enoyl-ACP reductase

> <UniProt (TrEMBL) Entry Name of Target Chain>
Q9BJJ9_PLAFA

> <UniProt (TrEMBL) Primary ID of Target Chain>
Q9BJJ9

> <UniProt (TrEMBL) Secondary ID(s) of Target Chain>


> <UniProt (TrEMBL) Alternative ID(s) of Target Chain>


$$$$
BindingDB_50452510_mol_1

Vconf v2.0 Academic SN VC001-00000579
 32 33  0  0  0  0  0  0  0  0999 V2000
    3.9880   -2.3700    0.5670 C   0  0  0  0  0  0  0  0  0  0  0
    3.9210   -3.7770    0.5470 C   0  0  0  0  0  0  0  0  0  0  0
    2.7050   -4.3740    0.4890 N   0  0  0  0  0  0  0  0  0  0  0
    2.7660   -1.6670    0.5260 C   0  0  0  0  0  0  0  0  0  0  0
    1.5880   -2.3370    0.4690 N   0  0  0  0  0  0  0  0  0  0  0
    1.5470   -3.6900    0.4510 C   0  0  0  0  0  0  0  0  0  0  0
    5.1280   -1.7460    0.6170 C   0  0  0  0  0  0  0  0  0  0  0
    6.1370   -1.1970    0.6620 N   0  0  0  0  0  0  0  0  0  0  0
    2.7260   -0.3110    0.5430 O   0  0  0  0  0  0  0  0  0  0  0
    5.0170   -4.5820    0.5870 N   0  0  0  0  0  0  0  0  0  0  0
    6.0940  -10.2680   -0.7120 N   0  0  0  0  0  0  0  0  0  0  0
    4.8740   -6.0000    0.5370 C   0  0  0  0  0  0  0  0  0  0  0
    0.2930   -4.4390    0.3970 C   0  0  0  0  0  0  0  0  0  0  0
    5.9680   -8.2200    0.5300 C   0  0  0  0  0  0  0  0  0  0  0
    6.3470   -8.9370   -0.6220 C   0  0  0  0  0  0  0  0  0  0  0
    5.4760  -10.9620    0.2750 C   0  0  0  0  0  0  0  0  0  0  0
    6.2070   -6.7630    0.6390 C   0  0  0  0  0  0  0  0  0  0  0
    5.3180   -8.9240    1.5630 C   0  0  0  0  0  0  0  0  0  0  0
    5.0700  -10.3000    1.4440 C   0  0  0  0  0  0  0  0  0  0  0
    1.8240    0.0680    0.5090 H   0  0  0  0  0  0  0  0  0  0  0
    5.9050   -4.1890    0.6450 H   0  0  0  0  0  0  0  0  0  0  0
    4.2260   -6.3150    1.3600 H   0  0  0  0  0  0  0  0  0  0  0
    4.3910   -6.2670   -0.4070 H   0  0  0  0  0  0  0  0  0  0  0
   -0.5530   -3.7540    0.3500 H   0  0  0  0  0  0  0  0  0  0  0
    0.2910   -5.0800   -0.4870 H   0  0  0  0  0  0  0  0  0  0  0
    0.2080   -5.0620    1.2890 H   0  0  0  0  0  0  0  0  0  0  0
    6.8040   -8.4570   -1.3990 H   0  0  0  0  0  0  0  0  0  0  0
    5.3080  -11.9610    0.1670 H   0  0  0  0  0  0  0  0  0  0  0
    6.8680   -6.4260   -0.1620 H   0  0  0  0  0  0  0  0  0  0  0
    6.6850   -6.5420    1.5940 H   0  0  0  0  0  0  0  0  0  0  0
    5.0230   -8.4320    2.4080 H   0  0  0  0  0  0  0  0  0  0  0
    4.6020  -10.8100    2.1930 H   0  0  0  0  0  0  0  0  0  0  0
  1  2  1  0  0  0  0
  1  4  2  0  0  0  0
  1  7  1  0  0  0  0
  2  3  2  0  0  0  0
  2 10  1  0  0  0  0
  3  6  1  0  0  0  0
  4  5  1  0  0  0  0
  4  9  1  0  0  0  0
  5  6  2  0  0  0  0
  6 13  1  0  0  0  0
  7  8  3  0  0  0  0
  9 20  1  0  0  0  0
 10 12  1  0  0  0  0
 10 21  1  0  0  0  0
 11 15  2  0  0  0  0
 11 16  1  0  0  0  0
 12 17  1  0  0  0  0
 12 22  1  0  0  0  0
 12 23  1  0  0  0  0
 13 24  1  0  0  0  0
 13 25  1  0  0  0  0
 13 26  1  0  0  0  0
 14 15  1  0  0  0  0
 14 17  1  0  0  0  0
 14 18  2  0  0  0  0
 15 27  1  0  0  0  0
 16 19  2  0  0  0  0
 16 28  1  0  0  0  0
 17 29  1  0  0  0  0
 17 30  1  0  0  0  0
 18 19  1  0  0  0  0
 18 31  1  0  0  0  0
 19 32  1  0  0  0  0
M  END
> <From>
www.bindingDB.org

> <BindingDB Reactant_set_id>
51108803

> <Ligand InChI>
InChI=1S/C19H19F2NO2/c1-24-17-8-3-2-6-15(17)14-9-10-22(12-14)18(23)11-13-5-4-7-16(20)19(13)21/h2-8,14H,9-12H2,1H3

> <Ligand InChI Key>
CJSHXBNQPCUHJC-UHFFFAOYSA-N

> <BindingDB MonomerID>
50452510

> <BindingDB Ligand Name>
CHEMBL4210599

> <Target Name>
Enoyl-[acyl-carrier-protein] reductase [NADPH] FabI [9-251]

> <Target Source Organism According to Curator or DataSource>
Staphylococcus aureus

> <Ki (nM)>


> <IC50 (nM)>
 3000

> <Kd (nM)>


> <EC50 (nM)>


> <kon (M-1-s-1)>


> <koff (s-1)>


> <pH>


> <Temp C>


> <Curation/DataSource>
ChEMBL

> <Article DOI>
10.1016/j.bmc.2017.11.018

> <BindingDB Entry DOI>
10.7270/Q2QF8WF7

> <PMID>
29162308

> <PubChem AID>


> <Patent Number>


> <Authors>
Kwon, J; Mistry, T; Ren, J; Johnson, ME; Mehboob, S

> <Institution>
Novalex Therapeutics

> <Link to Ligand in BindingDB>
http://www.bindingdb.org/bind/chemsearch/marvin/MolStructure.jsp?monomerid=50452510

> <Link to Ligand-Target Pair in BindingDB>
http://www.bindingdb.org/jsp/dbsearch/PrimarySearch_ki.jsp?energyterm=kJ/mole&tag=pol&polymerid=50004708&target=Enoyl-%5Bacyl-carrier-protein%5D+reductase+%5BNADPH%5D+FabI+%5B9-251%5D&column=ki&startPg=0&Increment=50&submit=Search

> <Link to Ligand-Target Pair in BindingDB>
http://www.bindingdb.org/jsp/dbsearch/PrimarySearch_ki.jsp?energyterm=kJ/mole&tag=r21&monomerid=50452510&enzyme=Enoyl-%5Bacyl-carrier-protein%5D+reductase+%5BNADPH%5D+FabI+%5B9-251%5D&column=ki&startPg=0&Increment=50&submit=Search

> <Ligand HET ID in PDB>


> <PDB ID(s) for Ligand-Target Complex>


> <PubChem CID of Ligand>
119106338

> <PubChem SID of Ligand>
433921366

> <ChEBI ID of Ligand>


> <ChEMBL ID of Ligand>


> <DrugBank ID of Ligand>


> <IUPHAR_GRAC ID of Ligand>


> <KEGG ID of Ligand>


> <ZINC ID of Ligand>


> <Number of Protein Chains in Target (bigger than 1 implies a multichain complex)>
1

> <BindingDB Target Chain Sequence>
YVIMGIANKRSIAFGVAKVLDQLGAKLVFTYRKERSRKELEKLLEQLNQPEAHLYQIDVQSDEEVINGFEQIGKDVGNIDGVYHSIAFANMEDLRGRFSETSREGFLLAQDISSYSLTIVAHEAKKLMPEGGSIVATTYLGGEFAVQNYNVMGVAKASLEANVKYLALDLGPDNIRVNAISAGPIRTLSAKGVGGFNTILKEIEERAPLKRNVDQVEVGKTAAYLLSDLSSGVTGENIHVDSG

> <PDB ID(s) of Target Chain>
3GNS,3GNT,3GR6,4ALI,4ALJ,4ALK,4ALL,4ALM,4ALN,4BNF,4BNG,4BNH,4BNI,4BNJ,4BNK,4BNL,4BNM,4BNN,4CUZ,4CV0,4CV1,4D41,4D42,4D43,4D44,4D45,4FS3,4NZ9,6TBB,6TBC,6YUR

> <UniProt (SwissProt) Recommended Name of Target Chain>
Enoyl-[acyl-carrier-protein] reductase [NADPH] FabI

> <UniProt (SwissProt) Entry Name of Target Chain>
FABI_STAAR

> <UniProt (SwissProt) Primary ID of Target Chain>
Q6GI75

> <UniProt (SwissProt) Secondary ID(s) of Target Chain>


> <UniProt (SwissProt) Alternative ID(s) of Target Chain>


> <UniProt (TrEMBL) Submitted Name of Target Chain>


> <UniProt (TrEMBL) Entry Name of Target Chain>


> <UniProt (TrEMBL) Primary ID of Target Chain>


> <UniProt (TrEMBL) Secondary ID(s) of Target Chain>


> <UniProt (TrEMBL) Alternative ID(s) of Target Chain>


$$$$
BindingDB_50452515_mol_1

Vconf v2.0 Academic SN VC001-00000579
 26 26  0  0  0  0  0  0  0  0999 V2000
    3.9920   -2.3750    0.5650 C   0  0  0  0  0  0  0  0  0  0  0
    3.9220   -3.7830    0.5500 C   0  0  0  0  0  0  0  0  0  0  0
    2.7080   -4.3830    0.4950 N   0  0  0  0  0  0  0  0  0  0  0
    2.7710   -1.6720    0.5230 C   0  0  0  0  0  0  0  0  0  0  0
    1.5960   -2.3420    0.4690 N   0  0  0  0  0  0  0  0  0  0  0
    1.5510   -3.6940    0.4540 C   0  0  0  0  0  0  0  0  0  0  0
    5.1310   -1.7430    0.6130 C   0  0  0  0  0  0  0  0  0  0  0
    6.1340   -1.1890    0.6550 N   0  0  0  0  0  0  0  0  0  0  0
    2.7260   -0.3180    0.5370 O   0  0  0  0  0  0  0  0  0  0  0
    5.0160   -4.5870    0.5890 N   0  0  0  0  0  0  0  0  0  0  0
    0.2980   -4.4450    0.3990 C   0  0  0  0  0  0  0  0  0  0  0
    4.8810   -6.0070    0.5580 C   0  0  0  0  0  0  0  0  0  0  0
    6.2130   -6.7660    0.6370 C   0  0  0  0  0  0  0  0  0  0  0
    5.9380   -8.2720    0.5440 C   0  0  0  0  0  0  0  0  0  0  0
    1.8210    0.0640    0.5070 H   0  0  0  0  0  0  0  0  0  0  0
    5.9000   -4.1890    0.6380 H   0  0  0  0  0  0  0  0  0  0  0
   -0.5570   -3.7690    0.3520 H   0  0  0  0  0  0  0  0  0  0  0
    0.3060   -5.0820   -0.4860 H   0  0  0  0  0  0  0  0  0  0  0
    0.2210   -5.0650    1.2930 H   0  0  0  0  0  0  0  0  0  0  0
    4.2580   -6.3160    1.4000 H   0  0  0  0  0  0  0  0  0  0  0
    4.3780   -6.2850   -0.3710 H   0  0  0  0  0  0  0  0  0  0  0
    6.8640   -6.4660   -0.1860 H   0  0  0  0  0  0  0  0  0  0  0
    6.7100   -6.5470    1.5840 H   0  0  0  0  0  0  0  0  0  0  0
    6.8720   -8.8290    0.6240 H   0  0  0  0  0  0  0  0  0  0  0
    5.2730   -8.5760    1.3520 H   0  0  0  0  0  0  0  0  0  0  0
    5.4670   -8.5030   -0.4120 H   0  0  0  0  0  0  0  0  0  0  0
  1  2  1  0  0  0  0
  1  4  2  0  0  0  0
  1  7  1  0  0  0  0
  2  3  2  0  0  0  0
  2 10  1  0  0  0  0
  3  6  1  0  0  0  0
  4  5  1  0  0  0  0
  4  9  1  0  0  0  0
  5  6  2  0  0  0  0
  6 11  1  0  0  0  0
  7  8  3  0  0  0  0
  9 15  1  0  0  0  0
 10 12  1  0  0  0  0
 10 16  1  0  0  0  0
 11 17  1  0  0  0  0
 11 18  1  0  0  0  0
 11 19  1  0  0  0  0
 12 13  1  0  0  0  0
 12 20  1  0  0  0  0
 12 21  1  0  0  0  0
 13 14  1  0  0  0  0
 13 22  1  0  0  0  0
 13 23  1  0  0  0  0
 14 24  1  0  0  0  0
 14 25  1  0  0  0  0
 14 26  1  0  0  0  0
M  END
> <From>
www.bindingDB.org

> <BindingDB Reactant_set_id>
51108807

> <Ligand InChI>
InChI=1S/C21H23N3O3/c1-15(25)23-20-9-7-16(13-22-20)8-10-21(26)24-12-11-17(14-24)18-5-3-4-6-19(18)27-2/h3-10,13,17H,11-12,14H2,1-2H3,(H,22,23,25)/b10-8+

> <Ligand InChI Key>
OXMDBWMQMHXHKS-CSKARUKUSA-N

> <BindingDB MonomerID>
50452515

> <BindingDB Ligand Name>
CHEMBL4214096

> <Target Name>
Enoyl-[acyl-carrier-protein] reductase [NADPH] FabI [9-251]

> <Target Source Organism According to Curator or DataSource>
Staphylococcus aureus

> <Ki (nM)>


> <IC50 (nM)>
 3500

> <Kd (nM)>


> <EC50 (nM)>


> <kon (M-1-s-1)>


> <koff (s-1)>


> <pH>


> <Temp C>


> <Curation/DataSource>
ChEMBL

> <Article DOI>
10.1016/j.bmc.2017.11.018

> <BindingDB Entry DOI>
10.7270/Q2QF8WF7

> <PMID>
29162308

> <PubChem AID>


> <Patent Number>


> <Authors>
Kwon, J; Mistry, T; Ren, J; Johnson, ME; Mehboob, S

> <Institution>
Novalex Therapeutics

> <Link to Ligand in BindingDB>
http://www.bindingdb.org/bind/chemsearch/marvin/MolStructure.jsp?monomerid=50452515

> <Link to Ligand-Target Pair in BindingDB>
http://www.bindingdb.org/jsp/dbsearch/PrimarySearch_ki.jsp?energyterm=kJ/mole&tag=pol&polymerid=50004708&target=Enoyl-%5Bacyl-carrier-protein%5D+reductase+%5BNADPH%5D+FabI+%5B9-251%5D&column=ki&startPg=0&Increment=50&submit=Search

> <Link to Ligand-Target Pair in BindingDB>
http://www.bindingdb.org/jsp/dbsearch/PrimarySearch_ki.jsp?energyterm=kJ/mole&tag=r21&monomerid=50452515&enzyme=Enoyl-%5Bacyl-carrier-protein%5D+reductase+%5BNADPH%5D+FabI+%5B9-251%5D&column=ki&startPg=0&Increment=50&submit=Search

> <Ligand HET ID in PDB>


> <PDB ID(s) for Ligand-Target Complex>


> <PubChem CID of Ligand>
122243061

> <PubChem SID of Ligand>
433921371

> <ChEBI ID of Ligand>


> <ChEMBL ID of Ligand>


> <DrugBank ID of Ligand>


> <IUPHAR_GRAC ID of Ligand>


> <KEGG ID of Ligand>


> <ZINC ID of Ligand>


> <Number of Protein Chains in Target (bigger than 1 implies a multichain complex)>
1

> <BindingDB Target Chain Sequence>
YVIMGIANKRSIAFGVAKVLDQLGAKLVFTYRKERSRKELEKLLEQLNQPEAHLYQIDVQSDEEVINGFEQIGKDVGNIDGVYHSIAFANMEDLRGRFSETSREGFLLAQDISSYSLTIVAHEAKKLMPEGGSIVATTYLGGEFAVQNYNVMGVAKASLEANVKYLALDLGPDNIRVNAISAGPIRTLSAKGVGGFNTILKEIEERAPLKRNVDQVEVGKTAAYLLSDLSSGVTGENIHVDSG

> <PDB ID(s) of Target Chain>
3GNS,3GNT,3GR6,4ALI,4ALJ,4ALK,4ALL,4ALM,4ALN,4BNF,4BNG,4BNH,4BNI,4BNJ,4BNK,4BNL,4BNM,4BNN,4CUZ,4CV0,4CV1,4D41,4D42,4D43,4D44,4D45,4FS3,4NZ9,6TBB,6TBC,6YUR

> <UniProt (SwissProt) Recommended Name of Target Chain>
Enoyl-[acyl-carrier-protein] reductase [NADPH] FabI

> <UniProt (SwissProt) Entry Name of Target Chain>
FABI_STAAR

> <UniProt (SwissProt) Primary ID of Target Chain>
Q6GI75

> <UniProt (SwissProt) Secondary ID(s) of Target Chain>


> <UniProt (SwissProt) Alternative ID(s) of Target Chain>


> <UniProt (TrEMBL) Submitted Name of Target Chain>


> <UniProt (TrEMBL) Entry Name of Target Chain>


> <UniProt (TrEMBL) Primary ID of Target Chain>


> <UniProt (TrEMBL) Secondary ID(s) of Target Chain>


> <UniProt (TrEMBL) Alternative ID(s) of Target Chain>


$$$$
BindingDB_51108775_3D

Vconf v2.1
 50 52  0  0  0  0  0  0  0  0999 V2000
   18.8140   -4.6200    0.3860 C   0  0  2  0  0  0  0  0  0  0  0
   19.7640   -5.7600   -0.0170 C   0  0  0  0  0  0  0  0  0  0  0
   21.0190   -5.4040    0.5550 N   0  0  0  0  0  0  0  0  0  0  0
   20.9440   -4.3040    1.4530 C   0  0  0  0  0  0  0  0  0  0  0
   19.4470   -4.0640    1.6670 C   0  0  0  0  0  0  0  0  0  0  0
   17.3950   -5.0240    0.5280 C   0  0  0  0  0  0  0  0  0  0  0
   22.1990   -6.0400    0.2960 C   0  0  0  0  0  0  0  0  0  0  0
   23.2350   -5.6120    0.8570 O   0  0  0  0  0  0  0  0  0  0  0
   22.2860   -7.1510   -0.5690 C   0  0  0  0  0  0  0  0  0  0  0
   23.4900   -7.8100   -0.8490 C   0  0  0  0  0  0  0  0  0  0  0
   17.0090   -6.0210    1.4470 C   0  0  0  0  0  0  0  0  0  0  0
   15.0550   -4.7920   -0.1440 C   0  0  0  0  0  0  0  0  0  0  0
   16.4030   -4.4130   -0.2650 C   0  0  0  0  0  0  0  0  0  0  0
   14.6730   -5.7890    0.7710 C   0  0  0  0  0  0  0  0  0  0  0
   15.6620   -6.4020    1.5680 C   0  0  0  0  0  0  0  0  0  0  0
   23.6330   -8.9290   -1.7080 C   0  0  0  0  0  0  0  0  0  0  0
   22.5630   -9.5380   -2.4000 C   0  0  0  0  0  0  0  0  0  0  0
   22.7870  -10.6050   -3.2060 N   0  0  0  0  0  0  0  0  0  0  0
   24.0130  -11.1540   -3.4050 C   0  0  0  0  0  0  0  0  0  0  0
   25.1140  -10.5890   -2.7410 C   0  0  0  0  0  0  0  0  0  0  0
   24.9170   -9.4830   -1.8990 C   0  0  0  0  0  0  0  0  0  0  0
   24.2220  -12.2210   -4.2140 N   0  0  0  0  0  0  0  0  0  0  0
   23.2820  -12.8860   -4.9280 C   0  0  0  0  0  0  0  0  0  0  0
   23.7090  -14.0200   -5.7480 C   0  0  0  0  0  0  0  0  0  0  0
   22.0680  -12.5790   -4.9200 O   0  0  0  0  0  0  0  0  0  0  0
   13.3460   -6.1070    0.8280 O   0  0  0  0  0  0  0  0  0  0  0
   12.8370   -7.1310    1.6860 C   0  0  0  0  0  0  0  0  0  0  0
   18.9050   -3.8420   -0.3760 H   0  0  0  0  0  0  0  0  0  0  0
   19.4430   -6.7240    0.3810 H   0  0  0  0  0  0  0  0  0  0  0
   19.8250   -5.8080   -1.1060 H   0  0  0  0  0  0  0  0  0  0  0
   21.4180   -4.5360    2.4090 H   0  0  0  0  0  0  0  0  0  0  0
   21.4130   -3.4250    1.0070 H   0  0  0  0  0  0  0  0  0  0  0
   19.2300   -3.0020    1.7910 H   0  0  0  0  0  0  0  0  0  0  0
   19.1190   -4.6200    2.5460 H   0  0  0  0  0  0  0  0  0  0  0
   21.4270   -7.4840   -1.0040 H   0  0  0  0  0  0  0  0  0  0  0
   24.3340   -7.4510   -0.3970 H   0  0  0  0  0  0  0  0  0  0  0
   17.7110   -6.4760    2.0310 H   0  0  0  0  0  0  0  0  0  0  0
   14.3490   -4.3410   -0.7260 H   0  0  0  0  0  0  0  0  0  0  0
   16.6590   -3.6880   -0.9370 H   0  0  0  0  0  0  0  0  0  0  0
   15.4070   -7.1270    2.2380 H   0  0  0  0  0  0  0  0  0  0  0
   21.6090   -9.1920   -2.3100 H   0  0  0  0  0  0  0  0  0  0  0
   26.0510  -10.9750   -2.8660 H   0  0  0  0  0  0  0  0  0  0  0
   25.7260   -9.0820   -1.4220 H   0  0  0  0  0  0  0  0  0  0  0
   25.1340  -12.5410   -4.2920 H   0  0  0  0  0  0  0  0  0  0  0
   22.8510  -14.4530   -6.2640 H   0  0  0  0  0  0  0  0  0  0  0
   24.4370  -13.6820   -6.4850 H   0  0  0  0  0  0  0  0  0  0  0
   24.1630  -14.7790   -5.1100 H   0  0  0  0  0  0  0  0  0  0  0
   11.7570   -7.2010    1.5490 H   0  0  0  0  0  0  0  0  0  0  0
   13.2870   -8.0930    1.4350 H   0  0  0  0  0  0  0  0  0  0  0
   13.0440   -6.8890    2.7300 H   0  0  0  0  0  0  0  0  0  0  0
  1  2  1  0  0  0  0
  1  5  1  0  0  0  0
  1  6  1  0  0  0  0
  1 28  1  0  0  0  0
  2  3  1  0  0  0  0
  2 29  1  0  0  0  0
  2 30  1  0  0  0  0
  3  4  1  0  0  0  0
  3  7  1  0  0  0  0
  4  5  1  0  0  0  0
  4 31  1  0  0  0  0
  4 32  1  0  0  0  0
  5 33  1  0  0  0  0
  5 34  1  0  0  0  0
  6 11  2  0  0  0  0
  6 13  1  0  0  0  0
  7  8  2  0  0  0  0
  7  9  1  0  0  0  0
  9 10  2  0  0  0  0
  9 35  1  0  0  0  0
 10 16  1  0  0  0  0
 10 36  1  0  0  0  0
 11 15  1  0  0  0  0
 11 37  1  0  0  0  0
 12 13  2  0  0  0  0
 12 14  1  0  0  0  0
 12 38  1  0  0  0  0
 13 39  1  0  0  0  0
 14 15  2  0  0  0  0
 14 26  1  0  0  0  0
 15 40  1  0  0  0  0
 16 17  2  0  0  0  0
 16 21  1  0  0  0  0
 17 18  1  0  0  0  0
 17 41  1  0  0  0  0
 18 19  2  0  0  0  0
 19 20  1  0  0  0  0
 19 22  1  0  0  0  0
 20 21  2  0  0  0  0
 20 42  1  0  0  0  0
 21 43  1  0  0  0  0
 22 23  1  0  0  0  0
 22 44  1  0  0  0  0
 23 24  1  0  0  0  0
 23 25  2  0  0  0  0
 24 45  1  0  0  0  0
 24 46  1  0  0  0  0
 24 47  1  0  0  0  0
 26 27  1  0  0  0  0
 27 48  1  0  0  0  0
 27 49  1  0  0  0  0
 27 50  1  0  0  0  0
M  END
> <From>
www.bindingDB.org

> <BindingDB Reactant_set_id>
51108775

> <Ligand InChI>
InChI=1S/C21H23N3O3/c1-15(25)23-20-9-3-16(13-22-20)4-10-21(26)24-12-11-18(14-24)17-5-7-19(27-2)8-6-17/h3-10,13,18H,11-12,14H2,1-2H3,(H,22,23,25)/b10-4+

> <Ligand InChI Key>
JRLIASHBUZHREN-ONNFQVAWSA-N

> <BindingDB MonomerID>
50452496

> <BindingDB Ligand Name>
CHEMBL4217852

> <Target Name>
Enoyl-[acyl-carrier-protein] reductase [NADPH] FabI [9-251]

> <Target Source Organism According to Curator or DataSource>
Staphylococcus aureus

> <Ki (nM)>


> <IC50 (nM)>
 3600

> <Kd (nM)>


> <EC50 (nM)>


> <kon (M-1-s-1)>


> <koff (s-1)>


> <pH>


> <Temp C>


> <Curation/DataSource>
ChEMBL

> <Article DOI>
10.1016/j.bmc.2017.11.018

> <BindingDB Entry DOI>
10.7270/Q2QF8WF7

> <PMID>
29162308

> <PubChem AID>


> <Patent Number>


> <Authors>
Kwon, J; Mistry, T; Ren, J; Johnson, ME; Mehboob, S

> <Institution>
Novalex Therapeutics

> <Link to Ligand in BindingDB>
http://www.bindingdb.org/bind/chemsearch/marvin/MolStructure.jsp?monomerid=50452496

> <Link to Ligand-Target Pair in BindingDB>
http://www.bindingdb.org/jsp/dbsearch/PrimarySearch_ki.jsp?energyterm=kJ/mole&tag=pol&polymerid=50004708&target=Enoyl-%5Bacyl-carrier-protein%5D+reductase+%5BNADPH%5D+FabI+%5B9-251%5D&column=ki&startPg=0&Increment=50&submit=Search

> <Link to Ligand-Target Pair in BindingDB>
http://www.bindingdb.org/jsp/dbsearch/PrimarySearch_ki.jsp?energyterm=kJ/mole&tag=r21&monomerid=50452496&enzyme=Enoyl-%5Bacyl-carrier-protein%5D+reductase+%5BNADPH%5D+FabI+%5B9-251%5D&column=ki&startPg=0&Increment=50&submit=Search

> <Ligand HET ID in PDB>


> <PDB ID(s) for Ligand-Target Complex>


> <PubChem CID of Ligand>
122243075

> <PubChem SID of Ligand>
433921352

> <ChEBI ID of Ligand>


> <ChEMBL ID of Ligand>


> <DrugBank ID of Ligand>


> <IUPHAR_GRAC ID of Ligand>


> <KEGG ID of Ligand>


> <ZINC ID of Ligand>


> <Number of Protein Chains in Target (bigger than 1 implies a multichain complex)>
1

> <BindingDB Target Chain Sequence>
YVIMGIANKRSIAFGVAKVLDQLGAKLVFTYRKERSRKELEKLLEQLNQPEAHLYQIDVQSDEEVINGFEQIGKDVGNIDGVYHSIAFANMEDLRGRFSETSREGFLLAQDISSYSLTIVAHEAKKLMPEGGSIVATTYLGGEFAVQNYNVMGVAKASLEANVKYLALDLGPDNIRVNAISAGPIRTLSAKGVGGFNTILKEIEERAPLKRNVDQVEVGKTAAYLLSDLSSGVTGENIHVDSG

> <PDB ID(s) of Target Chain>
3GNS,3GNT,3GR6,4ALI,4ALJ,4ALK,4ALL,4ALM,4ALN,4BNF,4BNG,4BNH,4BNI,4BNJ,4BNK,4BNL,4BNM,4BNN,4CUZ,4CV0,4CV1,4D41,4D42,4D43,4D44,4D45,4FS3,4NZ9,6TBB,6TBC,6YUR

> <UniProt (SwissProt) Recommended Name of Target Chain>
Enoyl-[acyl-carrier-protein] reductase [NADPH] FabI

> <UniProt (SwissProt) Entry Name of Target Chain>
FABI_STAAR

> <UniProt (SwissProt) Primary ID of Target Chain>
Q6GI75

> <UniProt (SwissProt) Secondary ID(s) of Target Chain>


> <UniProt (SwissProt) Alternative ID(s) of Target Chain>


> <UniProt (TrEMBL) Submitted Name of Target Chain>


> <UniProt (TrEMBL) Entry Name of Target Chain>


> <UniProt (TrEMBL) Primary ID of Target Chain>


> <UniProt (TrEMBL) Secondary ID(s) of Target Chain>


> <UniProt (TrEMBL) Alternative ID(s) of Target Chain>


$$$$
BindingDB_50452482_mol_1

Vconf v2.0 Academic SN VC001-00000579
 75 77  0  0  0  0  0  0  0  0999 V2000
   -0.8850   -7.6460    0.5310 C   0  0  1  0  0  0  0  0  0  0  0
   -1.8890   -7.7490   -0.4790 N   0  0  0  0  0  0  0  0  0  0  0
   -3.2830   -6.0750    0.5360 N   0  0  0  0  0  0  0  0  0  0  0
   -3.0250   -6.9940   -0.4420 C   0  0  0  0  0  0  0  0  0  0  0
   -1.1280   -6.6150    1.6540 C   0  0  1  0  0  0  0  0  0  0  0
   -0.7680   -8.8460    1.2100 N   0  0  0  0  0  0  0  0  0  0  0
   -2.3950   -5.8800    1.5520 C   0  0  0  0  0  0  0  0  0  0  0
   -1.1030   -7.4320    2.8040 N   0  0  0  0  0  0  0  0  0  0  0
   -0.8870   -8.7170    2.5040 C   0  0  0  0  0  0  0  0  0  0  0
   -0.4510  -16.1840    2.9630 C   0  0  0  0  0  0  0  0  0  0  0
   -0.5420  -18.0800    4.5560 C   0  0  0  0  0  0  0  0  0  0  0
    0.0570  -15.7060    1.6720 C   0  0  0  0  0  0  0  0  0  0  0
   -0.7910   -9.7690    3.4370 C   0  0  0  0  0  0  0  0  0  0  0
   -3.8750   -7.1700   -1.3460 O   0  0  0  0  0  0  0  0  0  0  0
    0.0560  -17.6050    3.2990 C   0  0  2  0  0  0  0  0  0  0  0
   -2.6300   -5.0340    2.4450 O   0  0  0  0  0  0  0  0  0  0  0
   -0.5390  -14.2250    8.1310 C   0  0  0  0  0  0  0  0  0  0  0
   -1.2740  -19.0940    4.5570 O   0  0  0  0  0  0  0  0  0  0  0
    0.7760  -14.6870    1.6140 O   0  0  0  0  0  0  0  0  0  0  0
    0.1010  -14.2410    9.2060 O   0  0  0  0  0  0  0  0  0  0  0
   -1.6640   -8.6810   -1.5440 C   0  0  0  0  0  0  0  0  0  0  0
   -4.4960   -5.2990    0.5080 C   0  0  0  0  0  0  0  0  0  0  0
   -0.2560  -11.0200    3.0560 C   0  0  0  0  0  0  0  0  0  0  0
   -1.2160   -9.5940    4.7720 C   0  0  0  0  0  0  0  0  0  0  0
   -0.3180  -17.3880    5.6900 N   0  0  0  0  0  0  0  0  0  0  0
   -0.8730  -15.3700    7.5050 N   0  0  0  0  0  0  0  0  0  0  0
   -0.3850  -12.9360    6.1690 O   0  0  0  0  0  0  0  0  0  0  0
   -0.2420  -16.3530    0.5380 N   0  0  0  0  0  0  0  0  0  0  0
   -0.8990  -12.9510    7.5050 C   0  0  0  0  0  0  0  0  0  0  0
    1.5180  -17.6030    3.4280 N   0  0  0  0  0  0  0  0  0  0  0
   -0.5530  -11.8800    5.3200 C   0  0  0  0  0  0  0  0  0  0  0
   -1.1010  -10.6400    5.7040 C   0  0  0  0  0  0  0  0  0  0  0
   -0.1360  -12.0610    3.9900 C   0  0  0  0  0  0  0  0  0  0  0
   -0.9100  -17.7130    6.9390 C   0  0  0  0  0  0  0  0  0  0  0
   -0.5020  -16.6560    7.9760 C   0  0  0  0  0  0  0  0  0  0  0
   -5.5010   -5.8090    1.5550 C   0  0  0  0  0  0  0  0  0  0  0
   -1.3480   -7.9600   -2.8660 C   0  0  0  0  0  0  0  0  0  0  0
   -6.8100   -5.0130    1.4740 C   0  0  0  0  0  0  0  0  0  0  0
   -1.0800   -8.9770   -3.9830 C   0  0  0  0  0  0  0  0  0  0  0
    0.0700   -7.4170    0.0530 H   0  0  0  0  0  0  0  0  0  0  0
   -0.3010   -5.9050    1.6900 H   0  0  0  0  0  0  0  0  0  0  0
   -1.2170   -7.0950    3.7060 H   0  0  0  0  0  0  0  0  0  0  0
   -1.5410  -16.1860    2.9230 H   0  0  0  0  0  0  0  0  0  0  0
   -0.1330  -15.4930    3.7460 H   0  0  0  0  0  0  0  0  0  0  0
   -0.2250  -18.2890    2.4950 H   0  0  0  0  0  0  0  0  0  0  0
   -0.8160   -9.3250   -1.3060 H   0  0  0  0  0  0  0  0  0  0  0
   -2.5420   -9.3180   -1.6710 H   0  0  0  0  0  0  0  0  0  0  0
   -4.2700   -4.2490    0.7070 H   0  0  0  0  0  0  0  0  0  0  0
   -4.9800   -5.3420   -0.4700 H   0  0  0  0  0  0  0  0  0  0  0
    0.0580  -11.1790    2.0970 H   0  0  0  0  0  0  0  0  0  0  0
   -1.6120   -8.7030    5.0760 H   0  0  0  0  0  0  0  0  0  0  0
    0.2640  -16.6140    5.6430 H   0  0  0  0  0  0  0  0  0  0  0
   -1.3540  -15.3070    6.6650 H   0  0  0  0  0  0  0  0  0  0  0
    0.0980  -16.0210   -0.3070 H   0  0  0  0  0  0  0  0  0  0  0
   -0.7990  -17.1460    0.5620 H   0  0  0  0  0  0  0  0  0  0  0
   -0.4760  -12.1290    8.0860 H   0  0  0  0  0  0  0  0  0  0  0
   -1.9860  -12.8610    7.4850 H   0  0  0  0  0  0  0  0  0  0  0
    1.8010  -18.5710    3.5950 H   0  0  0  0  0  0  0  0  0  0  0
    1.8980  -17.3360    2.5180 H   0  0  0  0  0  0  0  0  0  0  0
   -1.4130  -10.4900    6.6630 H   0  0  0  0  0  0  0  0  0  0  0
    0.2600  -12.9560    3.7000 H   0  0  0  0  0  0  0  0  0  0  0
   -0.5710  -18.6960    7.2680 H   0  0  0  0  0  0  0  0  0  0  0
   -1.9970  -17.7210    6.8440 H   0  0  0  0  0  0  0  0  0  0  0
    0.5790  -16.7010    8.1210 H   0  0  0  0  0  0  0  0  0  0  0
   -0.9990  -16.8640    8.9250 H   0  0  0  0  0  0  0  0  0  0  0
   -5.7130   -6.8630    1.3710 H   0  0  0  0  0  0  0  0  0  0  0
   -5.0810   -5.6990    2.5560 H   0  0  0  0  0  0  0  0  0  0  0
   -2.1890   -7.3310   -3.1590 H   0  0  0  0  0  0  0  0  0  0  0
   -0.4650   -7.3340   -2.7330 H   0  0  0  0  0  0  0  0  0  0  0
   -7.5060   -5.3820    2.2270 H   0  0  0  0  0  0  0  0  0  0  0
   -6.6100   -3.9570    1.6550 H   0  0  0  0  0  0  0  0  0  0  0
   -7.2530   -5.1340    0.4850 H   0  0  0  0  0  0  0  0  0  0  0
   -0.8530   -8.4470   -4.9080 H   0  0  0  0  0  0  0  0  0  0  0
   -0.2340   -9.6080   -3.7120 H   0  0  0  0  0  0  0  0  0  0  0
   -1.9630   -9.5990   -4.1330 H   0  0  0  0  0  0  0  0  0  0  0
  1  2  1  0  0  0  0
  1  5  1  0  0  0  0
  1  6  1  0  0  0  0
  1 40  1  0  0  0  0
  2  4  1  0  0  0  0
  2 21  1  0  0  0  0
  3  4  1  0  0  0  0
  3  7  1  0  0  0  0
  3 22  1  0  0  0  0
  4 14  2  0  0  0  0
  5  7  1  0  0  0  0
  5  8  1  0  0  0  0
  5 41  1  0  0  0  0
  6  9  2  0  0  0  0
  7 16  2  0  0  0  0
  8  9  1  0  0  0  0
  8 42  1  0  0  0  0
  9 13  1  0  0  0  0
 10 12  1  0  0  0  0
 10 15  1  0  0  0  0
 10 43  1  0  0  0  0
 10 44  1  0  0  0  0
 11 15  1  0  0  0  0
 11 18  2  0  0  0  0
 11 25  1  0  0  0  0
 12 19  2  0  0  0  0
 12 28  1  0  0  0  0
 13 23  2  0  0  0  0
 13 24  1  0  0  0  0
 15 30  1  0  0  0  0
 15 45  1  0  0  0  0
 17 20  2  0  0  0  0
 17 26  1  0  0  0  0
 17 29  1  0  0  0  0
 21 37  1  0  0  0  0
 21 46  1  0  0  0  0
 21 47  1  0  0  0  0
 22 36  1  0  0  0  0
 22 48  1  0  0  0  0
 22 49  1  0  0  0  0
 23 33  1  0  0  0  0
 23 50  1  0  0  0  0
 24 32  2  0  0  0  0
 24 51  1  0  0  0  0
 25 34  1  0  0  0  0
 25 52  1  0  0  0  0
 26 35  1  0  0  0  0
 26 53  1  0  0  0  0
 27 29  1  0  0  0  0
 27 31  1  0  0  0  0
 28 54  1  0  0  0  0
 28 55  1  0  0  0  0
 29 56  1  0  0  0  0
 29 57  1  0  0  0  0
 30 58  1  0  0  0  0
 30 59  1  0  0  0  0
 31 32  1  0  0  0  0
 31 33  2  0  0  0  0
 32 60  1  0  0  0  0
 33 61  1  0  0  0  0
 34 35  1  0  0  0  0
 34 62  1  0  0  0  0
 34 63  1  0  0  0  0
 35 64  1  0  0  0  0
 35 65  1  0  0  0  0
 36 38  1  0  0  0  0
 36 66  1  0  0  0  0
 36 67  1  0  0  0  0
 37 39  1  0  0  0  0
 37 68  1  0  0  0  0
 37 69  1  0  0  0  0
 38 70  1  0  0  0  0
 38 71  1  0  0  0  0
 38 72  1  0  0  0  0
 39 73  1  0  0  0  0
 39 74  1  0  0  0  0
 39 75  1  0  0  0  0
M  END
> <From>
www.bindingDB.org

> <BindingDB Reactant_set_id>
51108765

> <Ligand InChI>
InChI=1S/C17H18N4O2S/c1-12(22)20-15-4-2-13(10-19-15)3-5-16(23)21-8-6-14(11-21)17-18-7-9-24-17/h2-5,7,9-10,14H,6,8,11H2,1H3,(H,19,20,22)/b5-3+

> <Ligand InChI Key>
RMCDBOKHZMWFBB-HWKANZROSA-N

> <BindingDB MonomerID>
50452482

> <BindingDB Ligand Name>
CHEMBL4208104

> <Target Name>
Enoyl-[acyl-carrier-protein] reductase [NADPH] FabI [9-251]

> <Target Source Organism According to Curator or DataSource>
Staphylococcus aureus

> <Ki (nM)>


> <IC50 (nM)>
 4500

> <Kd (nM)>


> <EC50 (nM)>


> <kon (M-1-s-1)>


> <koff (s-1)>


> <pH>


> <Temp C>


> <Curation/DataSource>
ChEMBL

> <Article DOI>
10.1016/j.bmc.2017.11.018

> <BindingDB Entry DOI>
10.7270/Q2QF8WF7

> <PMID>
29162308

> <PubChem AID>


> <Patent Number>


> <Authors>
Kwon, J; Mistry, T; Ren, J; Johnson, ME; Mehboob, S

> <Institution>
Novalex Therapeutics

> <Link to Ligand in BindingDB>
http://www.bindingdb.org/bind/chemsearch/marvin/MolStructure.jsp?monomerid=50452482

> <Link to Ligand-Target Pair in BindingDB>
http://www.bindingdb.org/jsp/dbsearch/PrimarySearch_ki.jsp?energyterm=kJ/mole&tag=pol&polymerid=50004708&target=Enoyl-%5Bacyl-carrier-protein%5D+reductase+%5BNADPH%5D+FabI+%5B9-251%5D&column=ki&startPg=0&Increment=50&submit=Search

> <Link to Ligand-Target Pair in BindingDB>
http://www.bindingdb.org/jsp/dbsearch/PrimarySearch_ki.jsp?energyterm=kJ/mole&tag=r21&monomerid=50452482&enzyme=Enoyl-%5Bacyl-carrier-protein%5D+reductase+%5BNADPH%5D+FabI+%5B9-251%5D&column=ki&startPg=0&Increment=50&submit=Search

> <Ligand HET ID in PDB>


> <PDB ID(s) for Ligand-Target Complex>


> <PubChem CID of Ligand>
122243068

> <PubChem SID of Ligand>
433921348

> <ChEBI ID of Ligand>


> <ChEMBL ID of Ligand>


> <DrugBank ID of Ligand>


> <IUPHAR_GRAC ID of Ligand>


> <KEGG ID of Ligand>


> <ZINC ID of Ligand>


> <Number of Protein Chains in Target (bigger than 1 implies a multichain complex)>
1

> <BindingDB Target Chain Sequence>
YVIMGIANKRSIAFGVAKVLDQLGAKLVFTYRKERSRKELEKLLEQLNQPEAHLYQIDVQSDEEVINGFEQIGKDVGNIDGVYHSIAFANMEDLRGRFSETSREGFLLAQDISSYSLTIVAHEAKKLMPEGGSIVATTYLGGEFAVQNYNVMGVAKASLEANVKYLALDLGPDNIRVNAISAGPIRTLSAKGVGGFNTILKEIEERAPLKRNVDQVEVGKTAAYLLSDLSSGVTGENIHVDSG

> <PDB ID(s) of Target Chain>
3GNS,3GNT,3GR6,4ALI,4ALJ,4ALK,4ALL,4ALM,4ALN,4BNF,4BNG,4BNH,4BNI,4BNJ,4BNK,4BNL,4BNM,4BNN,4CUZ,4CV0,4CV1,4D41,4D42,4D43,4D44,4D45,4FS3,4NZ9,6TBB,6TBC,6YUR

> <UniProt (SwissProt) Recommended Name of Target Chain>
Enoyl-[acyl-carrier-protein] reductase [NADPH] FabI

> <UniProt (SwissProt) Entry Name of Target Chain>
FABI_STAAR

> <UniProt (SwissProt) Primary ID of Target Chain>
Q6GI75

> <UniProt (SwissProt) Secondary ID(s) of Target Chain>


> <UniProt (SwissProt) Alternative ID(s) of Target Chain>


> <UniProt (TrEMBL) Submitted Name of Target Chain>


> <UniProt (TrEMBL) Entry Name of Target Chain>


> <UniProt (TrEMBL) Primary ID of Target Chain>


> <UniProt (TrEMBL) Secondary ID(s) of Target Chain>


> <UniProt (TrEMBL) Alternative ID(s) of Target Chain>


$$$$
BindingDB_51108761_3D

Vconf v2.1
 43 45  0  0  0  0  0  0  0  0999 V2000
   18.6190   -3.1500   -0.3280 C   0  0  2  0  0  0  0  0  0  0  0
   18.5240   -4.6570   -0.0440 C   0  0  0  0  0  0  0  0  0  0  0
   19.8340   -5.0260    0.3640 N   0  0  0  0  0  0  0  0  0  0  0
   20.6940   -3.9230    0.6130 C   0  0  0  0  0  0  0  0  0  0  0
   19.7830   -2.6930    0.5600 C   0  0  0  0  0  0  0  0  0  0  0
   17.3500   -2.4070   -0.1160 C   0  0  0  0  0  0  0  0  0  0  0
   16.7460   -2.4020    1.1600 C   0  0  0  0  0  0  0  0  0  0  0
   15.5460   -1.7110    1.3870 C   0  0  0  0  0  0  0  0  0  0  0
   14.9320   -1.0140    0.3360 C   0  0  0  0  0  0  0  0  0  0  0
   15.5200   -1.0130   -0.9390 C   0  0  0  0  0  0  0  0  0  0  0
   16.7270   -1.7060   -1.1770 C   0  0  0  0  0  0  0  0  0  0  0
   20.2530   -6.3140    0.5030 C   0  0  0  0  0  0  0  0  0  0  0
   21.4370   -6.5360    0.8460 O   0  0  0  0  0  0  0  0  0  0  0
   19.3840   -7.4780    0.2450 C   0  0  0  0  0  0  0  0  0  0  0
   18.2790   -7.6120    1.2250 C   0  0  0  0  0  0  0  0  0  0  0
   18.5850   -7.8190    2.5880 C   0  0  0  0  0  0  0  0  0  0  0
   17.5620   -7.9490    3.5420 C   0  0  0  0  0  0  0  0  0  0  0
   16.2180   -7.8790    3.1440 C   0  0  0  0  0  0  0  0  0  0  0
   15.8980   -7.6850    1.7900 C   0  0  0  0  0  0  0  0  0  0  0
   16.9200   -7.5560    0.8330 C   0  0  0  0  0  0  0  0  0  0  0
   16.5810   -7.3760   -0.4140 F   0  0  0  0  0  0  0  0  0  0  0
   17.3260   -1.7310   -2.4070 O   0  0  0  0  0  0  0  0  0  0  0
   16.7760   -1.0840   -3.5570 C   0  0  0  0  0  0  0  0  0  0  0
   18.9550   -3.0450   -1.3620 H   0  0  0  0  0  0  0  0  0  0  0
   17.8190   -4.8720    0.7600 H   0  0  0  0  0  0  0  0  0  0  0
   18.2260   -5.1800   -0.9540 H   0  0  0  0  0  0  0  0  0  0  0
   21.1590   -3.9960    1.5970 H   0  0  0  0  0  0  0  0  0  0  0
   21.4610   -3.8640   -0.1610 H   0  0  0  0  0  0  0  0  0  0  0
   20.3010   -1.8350    0.1290 H   0  0  0  0  0  0  0  0  0  0  0
   19.4460   -2.4570    1.5710 H   0  0  0  0  0  0  0  0  0  0  0
   17.1810   -2.9080    1.9320 H   0  0  0  0  0  0  0  0  0  0  0
   15.1200   -1.7160    2.3140 H   0  0  0  0  0  0  0  0  0  0  0
   14.0590   -0.5110    0.4970 H   0  0  0  0  0  0  0  0  0  0  0
   15.0620   -0.5030   -1.6940 H   0  0  0  0  0  0  0  0  0  0  0
   19.0050   -7.3940   -0.7730 H   0  0  0  0  0  0  0  0  0  0  0
   19.9880   -8.3850    0.2940 H   0  0  0  0  0  0  0  0  0  0  0
   19.5590   -7.8730    2.8890 H   0  0  0  0  0  0  0  0  0  0  0
   17.7960   -8.0940    4.5250 H   0  0  0  0  0  0  0  0  0  0  0
   15.4740   -7.9710    3.8360 H   0  0  0  0  0  0  0  0  0  0  0
   14.9190   -7.6380    1.5050 H   0  0  0  0  0  0  0  0  0  0  0
   17.4320   -1.2620   -4.4090 H   0  0  0  0  0  0  0  0  0  0  0
   15.7880   -1.4900   -3.7830 H   0  0  0  0  0  0  0  0  0  0  0
   16.7020   -0.0090   -3.3880 H   0  0  0  0  0  0  0  0  0  0  0
  1  2  1  0  0  0  0
  1  5  1  0  0  0  0
  1  6  1  0  0  0  0
  1 24  1  0  0  0  0
  2  3  1  0  0  0  0
  2 25  1  0  0  0  0
  2 26  1  0  0  0  0
  3  4  1  0  0  0  0
  3 12  1  0  0  0  0
  4  5  1  0  0  0  0
  4 27  1  0  0  0  0
  4 28  1  0  0  0  0
  5 29  1  0  0  0  0
  5 30  1  0  0  0  0
  6  7  2  0  0  0  0
  6 11  1  0  0  0  0
  7  8  1  0  0  0  0
  7 31  1  0  0  0  0
  8  9  2  0  0  0  0
  8 32  1  0  0  0  0
  9 10  1  0  0  0  0
  9 33  1  0  0  0  0
 10 11  2  0  0  0  0
 10 34  1  0  0  0  0
 11 22  1  0  0  0  0
 12 13  2  0  0  0  0
 12 14  1  0  0  0  0
 14 15  1  0  0  0  0
 14 35  1  0  0  0  0
 14 36  1  0  0  0  0
 15 16  2  0  0  0  0
 15 20  1  0  0  0  0
 16 17  1  0  0  0  0
 16 37  1  0  0  0  0
 17 18  2  0  0  0  0
 17 38  1  0  0  0  0
 18 19  1  0  0  0  0
 18 39  1  0  0  0  0
 19 20  2  0  0  0  0
 19 40  1  0  0  0  0
 20 21  1  0  0  0  0
 22 23  1  0  0  0  0
 23 41  1  0  0  0  0
 23 42  1  0  0  0  0
 23 43  1  0  0  0  0
M  END
> <From>
www.bindingDB.org

> <BindingDB Reactant_set_id>
51108761

> <Ligand InChI>
InChI=1S/C19H20FNO2/c1-23-18-9-5-3-7-16(18)15-10-11-21(13-15)19(22)12-14-6-2-4-8-17(14)20/h2-9,15H,10-13H2,1H3

> <Ligand InChI Key>
GCWSGIASPQOXFB-UHFFFAOYSA-N

> <BindingDB MonomerID>
50452477

> <BindingDB Ligand Name>
CHEMBL4209685

> <Target Name>
Enoyl-[acyl-carrier-protein] reductase [NADPH] FabI [9-251]

> <Target Source Organism According to Curator or DataSource>
Staphylococcus aureus

> <Ki (nM)>


> <IC50 (nM)>
 4600

> <Kd (nM)>


> <EC50 (nM)>


> <kon (M-1-s-1)>


> <koff (s-1)>


> <pH>


> <Temp C>


> <Curation/DataSource>
ChEMBL

> <Article DOI>
10.1016/j.bmc.2017.11.018

> <BindingDB Entry DOI>
10.7270/Q2QF8WF7

> <PMID>
29162308

> <PubChem AID>


> <Patent Number>


> <Authors>
Kwon, J; Mistry, T; Ren, J; Johnson, ME; Mehboob, S

> <Institution>
Novalex Therapeutics

> <Link to Ligand in BindingDB>
http://www.bindingdb.org/bind/chemsearch/marvin/MolStructure.jsp?monomerid=50452477

> <Link to Ligand-Target Pair in BindingDB>
http://www.bindingdb.org/jsp/dbsearch/PrimarySearch_ki.jsp?energyterm=kJ/mole&tag=pol&polymerid=50004708&target=Enoyl-%5Bacyl-carrier-protein%5D+reductase+%5BNADPH%5D+FabI+%5B9-251%5D&column=ki&startPg=0&Increment=50&submit=Search

> <Link to Ligand-Target Pair in BindingDB>
http://www.bindingdb.org/jsp/dbsearch/PrimarySearch_ki.jsp?energyterm=kJ/mole&tag=r21&monomerid=50452477&enzyme=Enoyl-%5Bacyl-carrier-protein%5D+reductase+%5BNADPH%5D+FabI+%5B9-251%5D&column=ki&startPg=0&Increment=50&submit=Search

> <Ligand HET ID in PDB>


> <PDB ID(s) for Ligand-Target Complex>


> <PubChem CID of Ligand>
119106336

> <PubChem SID of Ligand>
433921344

> <ChEBI ID of Ligand>


> <ChEMBL ID of Ligand>


> <DrugBank ID of Ligand>


> <IUPHAR_GRAC ID of Ligand>


> <KEGG ID of Ligand>


> <ZINC ID of Ligand>


> <Number of Protein Chains in Target (bigger than 1 implies a multichain complex)>
1

> <BindingDB Target Chain Sequence>
YVIMGIANKRSIAFGVAKVLDQLGAKLVFTYRKERSRKELEKLLEQLNQPEAHLYQIDVQSDEEVINGFEQIGKDVGNIDGVYHSIAFANMEDLRGRFSETSREGFLLAQDISSYSLTIVAHEAKKLMPEGGSIVATTYLGGEFAVQNYNVMGVAKASLEANVKYLALDLGPDNIRVNAISAGPIRTLSAKGVGGFNTILKEIEERAPLKRNVDQVEVGKTAAYLLSDLSSGVTGENIHVDSG

> <PDB ID(s) of Target Chain>
3GNS,3GNT,3GR6,4ALI,4ALJ,4ALK,4ALL,4ALM,4ALN,4BNF,4BNG,4BNH,4BNI,4BNJ,4BNK,4BNL,4BNM,4BNN,4CUZ,4CV0,4CV1,4D41,4D42,4D43,4D44,4D45,4FS3,4NZ9,6TBB,6TBC,6YUR

> <UniProt (SwissProt) Recommended Name of Target Chain>
Enoyl-[acyl-carrier-protein] reductase [NADPH] FabI

> <UniProt (SwissProt) Entry Name of Target Chain>
FABI_STAAR

> <UniProt (SwissProt) Primary ID of Target Chain>
Q6GI75

> <UniProt (SwissProt) Secondary ID(s) of Target Chain>


> <UniProt (SwissProt) Alternative ID(s) of Target Chain>


> <UniProt (TrEMBL) Submitted Name of Target Chain>


> <UniProt (TrEMBL) Entry Name of Target Chain>


> <UniProt (TrEMBL) Primary ID of Target Chain>


> <UniProt (TrEMBL) Secondary ID(s) of Target Chain>


> <UniProt (TrEMBL) Alternative ID(s) of Target Chain>


$$$$
BindingDB_50452483_mol_1

Vconf v2.0 Academic SN VC001-00000579
 54 56  0  0  0  0  0  0  0  0999 V2000
    1.4740   -2.3450   -0.2660 N   0  0  0  0  0  0  0  0  0  0  0
    2.5680   -4.2970    0.4280 N   0  0  0  0  0  0  0  0  0  0  0
    3.7010   -2.1860    0.5790 C   0  0  0  0  0  0  0  0  0  0  0
    3.6710   -3.5850    0.7590 C   0  0  0  0  0  0  0  0  0  0  0
    2.5500   -1.5850    0.0490 C   0  0  0  0  0  0  0  0  0  0  0
    1.4740   -3.6860   -0.0820 C   0  0  0  0  0  0  0  0  0  0  0
    4.8190   -1.4970    0.9210 N   0  0  0  0  0  0  0  0  0  0  0
    8.3640    4.5470    7.0500 C   0  0  0  0  0  0  0  0  0  0  0
    4.7710   -4.1910    1.2710 N   0  0  0  0  0  0  0  0  0  0  0
    7.3050    4.9730    7.7830 N   0  0  0  0  0  0  0  0  0  0  0
    6.0390    6.3770    9.1350 C   0  0  0  0  0  0  0  0  0  0  0
    7.3820    5.9880    8.7800 C   0  0  1  0  0  0  0  0  0  0  0
    8.2300    3.5200    6.0830 C   0  0  0  0  0  0  0  0  0  0  0
    9.0680    6.1000   12.2060 C   0  0  0  0  0  0  0  0  0  0  0
    9.4750    5.0920    7.2450 O   0  0  0  0  0  0  0  0  0  0  0
    5.6710    7.5330    9.0090 O   0  0  0  0  0  0  0  0  0  0  0
    5.9200   -2.1060    1.4350 C   0  0  0  0  0  0  0  0  0  0  0
   10.1390    6.6020   12.5040 O   0  0  0  0  0  0  0  0  0  0  0
    0.3940   -4.4040   -0.4020 N   0  0  0  0  0  0  0  0  0  0  0
    8.1430    5.4780   10.0230 C   0  0  0  0  0  0  0  0  0  0  0
    6.9880    2.8850    5.8490 C   0  0  0  0  0  0  0  0  0  0  0
    9.3450    3.0970    5.3240 C   0  0  0  0  0  0  0  0  0  0  0
    5.8900   -3.5030    1.6130 C   0  0  0  0  0  0  0  0  0  0  0
    2.5040   -0.2500   -0.1520 O   0  0  0  0  0  0  0  0  0  0  0
    8.3190    6.5840   11.0810 C   0  0  0  0  0  0  0  0  0  0  0
    7.9320    0.4640    3.2110 N   0  0  0  0  0  0  0  0  0  0  0
    5.1840    5.4880    9.6050 O   0  0  0  0  0  0  0  0  0  0  0
    7.9860    1.4480    4.1430 C   0  0  0  0  0  0  0  0  0  0  0
    7.0990   -1.3000    1.7870 C   0  0  0  0  0  0  0  0  0  0  0
    8.6000    5.1090   12.9390 O   0  0  0  0  0  0  0  0  0  0  0
    9.2240    2.0760    4.3660 C   0  0  0  0  0  0  0  0  0  0  0
    6.8680    1.8630    4.8930 C   0  0  0  0  0  0  0  0  0  0  0
    6.7620   -0.2710    2.8790 C   0  0  0  0  0  0  0  0  0  0  0
    6.4370    4.5780    7.6100 H   0  0  0  0  0  0  0  0  0  0  0
    7.9040    6.8570    8.3720 H   0  0  0  0  0  0  0  0  0  0  0
    0.3960   -5.3650   -0.2700 H   0  0  0  0  0  0  0  0  0  0  0
   -0.3880   -3.9630   -0.7660 H   0  0  0  0  0  0  0  0  0  0  0
    7.6020    4.6370   10.4610 H   0  0  0  0  0  0  0  0  0  0  0
    9.1330    5.1330    9.7200 H   0  0  0  0  0  0  0  0  0  0  0
    6.1580    3.1590    6.3750 H   0  0  0  0  0  0  0  0  0  0  0
   10.2590    3.5310    5.4650 H   0  0  0  0  0  0  0  0  0  0  0
    6.6970   -3.9970    1.9950 H   0  0  0  0  0  0  0  0  0  0  0
    3.3290    0.2160    0.1000 H   0  0  0  0  0  0  0  0  0  0  0
    8.8410    7.4290   10.6300 H   0  0  0  0  0  0  0  0  0  0  0
    7.3420    6.9180   11.4320 H   0  0  0  0  0  0  0  0  0  0  0
    8.7510    0.2440    2.7400 H   0  0  0  0  0  0  0  0  0  0  0
    4.3070    5.8660    9.8230 H   0  0  0  0  0  0  0  0  0  0  0
    7.9060   -1.9420    2.1450 H   0  0  0  0  0  0  0  0  0  0  0
    7.4420   -0.7760    0.8940 H   0  0  0  0  0  0  0  0  0  0  0
    9.1890    4.8600   13.6820 H   0  0  0  0  0  0  0  0  0  0  0
   10.0460    1.7900    3.8330 H   0  0  0  0  0  0  0  0  0  0  0
    5.9590    1.4220    4.7480 H   0  0  0  0  0  0  0  0  0  0  0
    5.9930    0.4110    2.5100 H   0  0  0  0  0  0  0  0  0  0  0
    6.3930   -0.7910    3.7650 H   0  0  0  0  0  0  0  0  0  0  0
  1  5  1  0  0  0  0
  1  6  2  0  0  0  0
  2  4  2  0  0  0  0
  2  6  1  0  0  0  0
  3  4  1  0  0  0  0
  3  5  2  0  0  0  0
  3  7  1  0  0  0  0
  4  9  1  0  0  0  0
  5 24  1  0  0  0  0
  6 19  1  0  0  0  0
  7 17  2  0  0  0  0
  8 10  1  0  0  0  0
  8 13  1  0  0  0  0
  8 15  2  0  0  0  0
  9 23  2  0  0  0  0
 10 12  1  0  0  0  0
 10 34  1  0  0  0  0
 11 12  1  0  0  0  0
 11 16  2  0  0  0  0
 11 27  1  0  0  0  0
 12 20  1  0  0  0  0
 12 35  1  0  0  0  0
 13 21  1  0  0  0  0
 13 22  2  0  0  0  0
 14 18  2  0  0  0  0
 14 25  1  0  0  0  0
 14 30  1  0  0  0  0
 17 23  1  0  0  0  0
 17 29  1  0  0  0  0
 19 36  1  0  0  0  0
 19 37  1  0  0  0  0
 20 25  1  0  0  0  0
 20 38  1  0  0  0  0
 20 39  1  0  0  0  0
 21 32  2  0  0  0  0
 21 40  1  0  0  0  0
 22 31  1  0  0  0  0
 22 41  1  0  0  0  0
 23 42  1  0  0  0  0
 24 43  1  0  0  0  0
 25 44  1  0  0  0  0
 25 45  1  0  0  0  0
 26 28  1  0  0  0  0
 26 33  1  0  0  0  0
 26 46  1  0  0  0  0
 27 47  1  0  0  0  0
 28 31  2  0  0  0  0
 28 32  1  0  0  0  0
 29 33  1  0  0  0  0
 29 48  1  0  0  0  0
 29 49  1  0  0  0  0
 30 50  1  0  0  0  0
 31 51  1  0  0  0  0
 32 52  1  0  0  0  0
 33 53  1  0  0  0  0
 33 54  1  0  0  0  0
M  END
> <From>
www.bindingDB.org

> <BindingDB Reactant_set_id>
51108805

> <Ligand InChI>
InChI=1S/C18H18FNO/c19-17-9-5-4-8-15(17)12-18(21)20-11-10-16(13-20)14-6-2-1-3-7-14/h1-9,16H,10-13H2

> <Ligand InChI Key>
OVQXODRNAKHRKI-UHFFFAOYSA-N

> <BindingDB MonomerID>
50452483

> <BindingDB Ligand Name>
CHEMBL4210639

> <Target Name>
Enoyl-[acyl-carrier-protein] reductase [NADPH] FabI [9-251]

> <Target Source Organism According to Curator or DataSource>
Staphylococcus aureus

> <Ki (nM)>


> <IC50 (nM)>
 5000

> <Kd (nM)>


> <EC50 (nM)>


> <kon (M-1-s-1)>


> <koff (s-1)>


> <pH>


> <Temp C>


> <Curation/DataSource>
ChEMBL

> <Article DOI>
10.1016/j.bmc.2017.11.018

> <BindingDB Entry DOI>
10.7270/Q2QF8WF7

> <PMID>
29162308

> <PubChem AID>


> <Patent Number>


> <Authors>
Kwon, J; Mistry, T; Ren, J; Johnson, ME; Mehboob, S

> <Institution>
Novalex Therapeutics

> <Link to Ligand in BindingDB>
http://www.bindingdb.org/bind/chemsearch/marvin/MolStructure.jsp?monomerid=50452483

> <Link to Ligand-Target Pair in BindingDB>
http://www.bindingdb.org/jsp/dbsearch/PrimarySearch_ki.jsp?energyterm=kJ/mole&tag=pol&polymerid=50004708&target=Enoyl-%5Bacyl-carrier-protein%5D+reductase+%5BNADPH%5D+FabI+%5B9-251%5D&column=ki&startPg=0&Increment=50&submit=Search

> <Link to Ligand-Target Pair in BindingDB>
http://www.bindingdb.org/jsp/dbsearch/PrimarySearch_ki.jsp?energyterm=kJ/mole&tag=r21&monomerid=50452483&enzyme=Enoyl-%5Bacyl-carrier-protein%5D+reductase+%5BNADPH%5D+FabI+%5B9-251%5D&column=ki&startPg=0&Increment=50&submit=Search

> <Ligand HET ID in PDB>


> <PDB ID(s) for Ligand-Target Complex>


> <PubChem CID of Ligand>
119106334

> <PubChem SID of Ligand>
433921349

> <ChEBI ID of Ligand>


> <ChEMBL ID of Ligand>


> <DrugBank ID of Ligand>


> <IUPHAR_GRAC ID of Ligand>


> <KEGG ID of Ligand>


> <ZINC ID of Ligand>


> <Number of Protein Chains in Target (bigger than 1 implies a multichain complex)>
1

> <BindingDB Target Chain Sequence>
YVIMGIANKRSIAFGVAKVLDQLGAKLVFTYRKERSRKELEKLLEQLNQPEAHLYQIDVQSDEEVINGFEQIGKDVGNIDGVYHSIAFANMEDLRGRFSETSREGFLLAQDISSYSLTIVAHEAKKLMPEGGSIVATTYLGGEFAVQNYNVMGVAKASLEANVKYLALDLGPDNIRVNAISAGPIRTLSAKGVGGFNTILKEIEERAPLKRNVDQVEVGKTAAYLLSDLSSGVTGENIHVDSG

> <PDB ID(s) of Target Chain>
3GNS,3GNT,3GR6,4ALI,4ALJ,4ALK,4ALL,4ALM,4ALN,4BNF,4BNG,4BNH,4BNI,4BNJ,4BNK,4BNL,4BNM,4BNN,4CUZ,4CV0,4CV1,4D41,4D42,4D43,4D44,4D45,4FS3,4NZ9,6TBB,6TBC,6YUR

> <UniProt (SwissProt) Recommended Name of Target Chain>
Enoyl-[acyl-carrier-protein] reductase [NADPH] FabI

> <UniProt (SwissProt) Entry Name of Target Chain>
FABI_STAAR

> <UniProt (SwissProt) Primary ID of Target Chain>
Q6GI75

> <UniProt (SwissProt) Secondary ID(s) of Target Chain>


> <UniProt (SwissProt) Alternative ID(s) of Target Chain>


> <UniProt (TrEMBL) Submitted Name of Target Chain>


> <UniProt (TrEMBL) Entry Name of Target Chain>


> <UniProt (TrEMBL) Primary ID of Target Chain>


> <UniProt (TrEMBL) Secondary ID(s) of Target Chain>


> <UniProt (TrEMBL) Alternative ID(s) of Target Chain>


$$$$
BindingDB_51108809_3D

Vconf v2.1
 42 45  0  0  0  0  0  0  0  0999 V2000
    4.8820  -18.2950    0.8920 C   0  0  2  0  0  0  0  0  0  0  0
    6.2780  -18.9340    0.9680 C   0  0  0  0  0  0  0  0  0  0  0
    7.1400  -17.9670    0.3840 N   0  0  0  0  0  0  0  0  0  0  0
    6.5310  -16.7000    0.1770 C   0  0  0  0  0  0  0  0  0  0  0
    5.1810  -16.7910    0.8940 C   0  0  0  0  0  0  0  0  0  0  0
    3.9470  -18.7380    1.9530 C   0  0  0  0  0  0  0  0  0  0  0
    8.4330  -18.2110    0.0340 C   0  0  0  0  0  0  0  0  0  0  0
    9.1010  -17.2990   -0.5030 O   0  0  0  0  0  0  0  0  0  0  0
    9.0920  -19.5150    0.2370 C   0  0  0  0  0  0  0  0  0  0  0
    9.3270  -19.8340    1.6660 C   0  0  0  0  0  0  0  0  0  0  0
   10.1810  -19.0020    2.4230 C   0  0  0  0  0  0  0  0  0  0  0
   10.4360  -19.2740    3.7760 C   0  0  0  0  0  0  0  0  0  0  0
    9.8460  -20.3890    4.3900 C   0  0  0  0  0  0  0  0  0  0  0
    9.0010  -21.2350    3.6510 C   0  0  0  0  0  0  0  0  0  0  0
    8.7440  -20.9630    2.2910 C   0  0  0  0  0  0  0  0  0  0  0
    7.9570  -21.7590    1.6150 F   0  0  0  0  0  0  0  0  0  0  0
    4.2530  -18.5380    3.3190 C   0  0  0  0  0  0  0  0  0  0  0
    1.8300  -19.8120    2.5940 C   0  0  0  0  0  0  0  0  0  0  0
    2.7320  -19.3770    1.6030 C   0  0  0  0  0  0  0  0  0  0  0
    2.1600  -19.6000    3.9400 C   0  0  0  0  0  0  0  0  0  0  0
    3.3460  -18.9760    4.2950 C   0  0  0  0  0  0  0  0  0  0  0
    3.4430  -18.8860    5.6330 O   0  0  0  0  0  0  0  0  0  0  0
    2.2490  -19.4900    6.1560 C   0  0  0  0  0  0  0  0  0  0  0
    1.4600  -19.9290    5.0390 O   0  0  0  0  0  0  0  0  0  0  0
    8.4660  -22.2670    4.2460 F   0  0  0  0  0  0  0  0  0  0  0
    4.4710  -18.5370   -0.0920 H   0  0  0  0  0  0  0  0  0  0  0
    6.5830  -19.1180    1.9980 H   0  0  0  0  0  0  0  0  0  0  0
    6.2820  -19.8670    0.4020 H   0  0  0  0  0  0  0  0  0  0  0
    7.1280  -15.8960    0.6120 H   0  0  0  0  0  0  0  0  0  0  0
    6.3860  -16.5240   -0.8900 H   0  0  0  0  0  0  0  0  0  0  0
    4.4110  -16.2300    0.3630 H   0  0  0  0  0  0  0  0  0  0  0
    5.2910  -16.4090    1.9100 H   0  0  0  0  0  0  0  0  0  0  0
    8.4860  -20.2790   -0.2490 H   0  0  0  0  0  0  0  0  0  0  0
   10.0600  -19.5010   -0.2670 H   0  0  0  0  0  0  0  0  0  0  0
   10.6190  -18.1900    1.9860 H   0  0  0  0  0  0  0  0  0  0  0
   11.0530  -18.6630    4.3120 H   0  0  0  0  0  0  0  0  0  0  0
   10.0340  -20.5830    5.3740 H   0  0  0  0  0  0  0  0  0  0  0
    5.1220  -18.0820    3.5990 H   0  0  0  0  0  0  0  0  0  0  0
    0.9570  -20.2730    2.3390 H   0  0  0  0  0  0  0  0  0  0  0
    2.5020  -19.5270    0.6210 H   0  0  0  0  0  0  0  0  0  0  0
    2.5090  -20.3420    6.7850 H   0  0  0  0  0  0  0  0  0  0  0
    1.6890  -18.7590    6.7420 H   0  0  0  0  0  0  0  0  0  0  0
  1  2  1  0  0  0  0
  1  5  1  0  0  0  0
  1  6  1  0  0  0  0
  1 26  1  0  0  0  0
  2  3  1  0  0  0  0
  2 27  1  0  0  0  0
  2 28  1  0  0  0  0
  3  4  1  0  0  0  0
  3  7  1  0  0  0  0
  4  5  1  0  0  0  0
  4 29  1  0  0  0  0
  4 30  1  0  0  0  0
  5 31  1  0  0  0  0
  5 32  1  0  0  0  0
  6 17  2  0  0  0  0
  6 19  1  0  0  0  0
  7  8  2  0  0  0  0
  7  9  1  0  0  0  0
  9 10  1  0  0  0  0
  9 33  1  0  0  0  0
  9 34  1  0  0  0  0
 10 11  2  0  0  0  0
 10 15  1  0  0  0  0
 11 12  1  0  0  0  0
 11 35  1  0  0  0  0
 12 13  2  0  0  0  0
 12 36  1  0  0  0  0
 13 14  1  0  0  0  0
 13 37  1  0  0  0  0
 14 15  2  0  0  0  0
 14 25  1  0  0  0  0
 15 16  1  0  0  0  0
 17 21  1  0  0  0  0
 17 38  1  0  0  0  0
 18 19  2  0  0  0  0
 18 20  1  0  0  0  0
 18 39  1  0  0  0  0
 19 40  1  0  0  0  0
 20 21  2  0  0  0  0
 20 24  1  0  0  0  0
 21 22  1  0  0  0  0
 22 23  1  0  0  0  0
 23 24  1  0  0  0  0
 23 41  1  0  0  0  0
 23 42  1  0  0  0  0
M  END
> <From>
www.bindingDB.org

> <BindingDB Reactant_set_id>
51108809

> <Ligand InChI>
InChI=1S/C19H17F2NO3/c20-15-3-1-2-13(19(15)21)9-18(23)22-7-6-14(10-22)12-4-5-16-17(8-12)25-11-24-16/h1-5,8,14H,6-7,9-11H2

> <Ligand InChI Key>
DCFHLNWEQZANHL-UHFFFAOYSA-N

> <BindingDB MonomerID>
50452495

> <BindingDB Ligand Name>
CHEMBL4218049

> <Target Name>
Enoyl-[acyl-carrier-protein] reductase [NADPH] FabI [9-251]

> <Target Source Organism According to Curator or DataSource>
Staphylococcus aureus

> <Ki (nM)>


> <IC50 (nM)>
 5500

> <Kd (nM)>


> <EC50 (nM)>


> <kon (M-1-s-1)>


> <koff (s-1)>


> <pH>


> <Temp C>


> <Curation/DataSource>
ChEMBL

> <Article DOI>
10.1016/j.bmc.2017.11.018

> <BindingDB Entry DOI>
10.7270/Q2QF8WF7

> <PMID>
29162308

> <PubChem AID>


> <Patent Number>


> <Authors>
Kwon, J; Mistry, T; Ren, J; Johnson, ME; Mehboob, S

> <Institution>
Novalex Therapeutics

> <Link to Ligand in BindingDB>
http://www.bindingdb.org/bind/chemsearch/marvin/MolStructure.jsp?monomerid=50452495

> <Link to Ligand-Target Pair in BindingDB>
http://www.bindingdb.org/jsp/dbsearch/PrimarySearch_ki.jsp?energyterm=kJ/mole&tag=pol&polymerid=50004708&target=Enoyl-%5Bacyl-carrier-protein%5D+reductase+%5BNADPH%5D+FabI+%5B9-251%5D&column=ki&startPg=0&Increment=50&submit=Search

> <Link to Ligand-Target Pair in BindingDB>
http://www.bindingdb.org/jsp/dbsearch/PrimarySearch_ki.jsp?energyterm=kJ/mole&tag=r21&monomerid=50452495&enzyme=Enoyl-%5Bacyl-carrier-protein%5D+reductase+%5BNADPH%5D+FabI+%5B9-251%5D&column=ki&startPg=0&Increment=50&submit=Search

> <Ligand HET ID in PDB>


> <PDB ID(s) for Ligand-Target Complex>


> <PubChem CID of Ligand>
119106340

> <PubChem SID of Ligand>
433921351

> <ChEBI ID of Ligand>


> <ChEMBL ID of Ligand>


> <DrugBank ID of Ligand>


> <IUPHAR_GRAC ID of Ligand>


> <KEGG ID of Ligand>


> <ZINC ID of Ligand>


> <Number of Protein Chains in Target (bigger than 1 implies a multichain complex)>
1

> <BindingDB Target Chain Sequence>
YVIMGIANKRSIAFGVAKVLDQLGAKLVFTYRKERSRKELEKLLEQLNQPEAHLYQIDVQSDEEVINGFEQIGKDVGNIDGVYHSIAFANMEDLRGRFSETSREGFLLAQDISSYSLTIVAHEAKKLMPEGGSIVATTYLGGEFAVQNYNVMGVAKASLEANVKYLALDLGPDNIRVNAISAGPIRTLSAKGVGGFNTILKEIEERAPLKRNVDQVEVGKTAAYLLSDLSSGVTGENIHVDSG

> <PDB ID(s) of Target Chain>
3GNS,3GNT,3GR6,4ALI,4ALJ,4ALK,4ALL,4ALM,4ALN,4BNF,4BNG,4BNH,4BNI,4BNJ,4BNK,4BNL,4BNM,4BNN,4CUZ,4CV0,4CV1,4D41,4D42,4D43,4D44,4D45,4FS3,4NZ9,6TBB,6TBC,6YUR

> <UniProt (SwissProt) Recommended Name of Target Chain>
Enoyl-[acyl-carrier-protein] reductase [NADPH] FabI

> <UniProt (SwissProt) Entry Name of Target Chain>
FABI_STAAR

> <UniProt (SwissProt) Primary ID of Target Chain>
Q6GI75

> <UniProt (SwissProt) Secondary ID(s) of Target Chain>


> <UniProt (SwissProt) Alternative ID(s) of Target Chain>


> <UniProt (TrEMBL) Submitted Name of Target Chain>


> <UniProt (TrEMBL) Entry Name of Target Chain>


> <UniProt (TrEMBL) Primary ID of Target Chain>


> <UniProt (TrEMBL) Secondary ID(s) of Target Chain>


> <UniProt (TrEMBL) Alternative ID(s) of Target Chain>


$$$$
BindingDB_51108772_3D

Vconf v2.1
 43 45  0  0  0  0  0  0  0  0999 V2000
   10.6890   -7.9650    0.1940 C   0  0  2  0  0  0  0  0  0  0  0
   11.8770   -8.8840    0.5270 C   0  0  0  0  0  0  0  0  0  0  0
   12.9070   -8.0010    0.9490 N   0  0  0  0  0  0  0  0  0  0  0
   12.4790   -6.6580    1.1300 C   0  0  0  0  0  0  0  0  0  0  0
   10.9510   -6.7190    1.0490 C   0  0  0  0  0  0  0  0  0  0  0
    9.3570   -8.5860    0.4100 C   0  0  0  0  0  0  0  0  0  0  0
    9.0170   -9.0880    1.6850 C   0  0  0  0  0  0  0  0  0  0  0
    7.7710   -9.6920    1.9130 C   0  0  0  0  0  0  0  0  0  0  0
    6.8440   -9.7960    0.8660 C   0  0  0  0  0  0  0  0  0  0  0
    7.1660   -9.2950   -0.4050 C   0  0  0  0  0  0  0  0  0  0  0
    8.4190   -8.6880   -0.6440 C   0  0  0  0  0  0  0  0  0  0  0
   14.1940   -8.3850    1.1700 C   0  0  0  0  0  0  0  0  0  0  0
   15.0370   -7.5190    1.4950 O   0  0  0  0  0  0  0  0  0  0  0
   14.6600   -9.7800    1.0350 C   0  0  0  0  0  0  0  0  0  0  0
   14.0680  -10.7060    2.0370 C   0  0  0  0  0  0  0  0  0  0  0
   13.2650  -11.8010    1.6340 C   0  0  0  0  0  0  0  0  0  0  0
   12.7010  -12.6660    2.5890 C   0  0  0  0  0  0  0  0  0  0  0
   12.9360  -12.4570    3.9560 C   0  0  0  0  0  0  0  0  0  0  0
   13.7440  -11.3880    4.3710 C   0  0  0  0  0  0  0  0  0  0  0
   14.3130  -10.5220    3.4200 C   0  0  0  0  0  0  0  0  0  0  0
   15.0710   -9.5500    3.8480 F   0  0  0  0  0  0  0  0  0  0  0
   13.0130  -12.0320    0.3750 F   0  0  0  0  0  0  0  0  0  0  0
    8.7660   -8.1850   -1.8680 O   0  0  0  0  0  0  0  0  0  0  0
    7.9040   -8.2430   -3.0090 C   0  0  0  0  0  0  0  0  0  0  0
   10.8070   -7.6600   -0.8480 H   0  0  0  0  0  0  0  0  0  0  0
   11.6360   -9.5730    1.3360 H   0  0  0  0  0  0  0  0  0  0  0
   12.1700   -9.4400   -0.3640 H   0  0  0  0  0  0  0  0  0  0  0
   12.8800   -6.0260    0.3360 H   0  0  0  0  0  0  0  0  0  0  0
   12.7810   -6.2720    2.1050 H   0  0  0  0  0  0  0  0  0  0  0
   10.5440   -5.8220    0.5820 H   0  0  0  0  0  0  0  0  0  0  0
   10.5460   -6.8340    2.0560 H   0  0  0  0  0  0  0  0  0  0  0
    9.6840   -9.0200    2.4540 H   0  0  0  0  0  0  0  0  0  0  0
    7.5410  -10.0550    2.8390 H   0  0  0  0  0  0  0  0  0  0  0
    5.9370  -10.2340    1.0290 H   0  0  0  0  0  0  0  0  0  0  0
    6.4800   -9.3750   -1.1550 H   0  0  0  0  0  0  0  0  0  0  0
   14.4450  -10.1040    0.0170 H   0  0  0  0  0  0  0  0  0  0  0
   15.7440   -9.8000    1.1600 H   0  0  0  0  0  0  0  0  0  0  0
   12.1180  -13.4490    2.2910 H   0  0  0  0  0  0  0  0  0  0  0
   12.5230  -13.0840    4.6470 H   0  0  0  0  0  0  0  0  0  0  0
   13.9180  -11.2430    5.3660 H   0  0  0  0  0  0  0  0  0  0  0
    8.4050   -7.7690   -3.8530 H   0  0  0  0  0  0  0  0  0  0  0
    7.6870   -9.2810   -3.2650 H   0  0  0  0  0  0  0  0  0  0  0
    6.9730   -7.7110   -2.8080 H   0  0  0  0  0  0  0  0  0  0  0
  1  2  1  0  0  0  0
  1  5  1  0  0  0  0
  1  6  1  0  0  0  0
  1 25  1  0  0  0  0
  2  3  1  0  0  0  0
  2 26  1  0  0  0  0
  2 27  1  0  0  0  0
  3  4  1  0  0  0  0
  3 12  1  0  0  0  0
  4  5  1  0  0  0  0
  4 28  1  0  0  0  0
  4 29  1  0  0  0  0
  5 30  1  0  0  0  0
  5 31  1  0  0  0  0
  6  7  2  0  0  0  0
  6 11  1  0  0  0  0
  7  8  1  0  0  0  0
  7 32  1  0  0  0  0
  8  9  2  0  0  0  0
  8 33  1  0  0  0  0
  9 10  1  0  0  0  0
  9 34  1  0  0  0  0
 10 11  2  0  0  0  0
 10 35  1  0  0  0  0
 11 23  1  0  0  0  0
 12 13  2  0  0  0  0
 12 14  1  0  0  0  0
 14 15  1  0  0  0  0
 14 36  1  0  0  0  0
 14 37  1  0  0  0  0
 15 16  2  0  0  0  0
 15 20  1  0  0  0  0
 16 17  1  0  0  0  0
 16 22  1  0  0  0  0
 17 18  2  0  0  0  0
 17 38  1  0  0  0  0
 18 19  1  0  0  0  0
 18 39  1  0  0  0  0
 19 20  2  0  0  0  0
 19 40  1  0  0  0  0
 20 21  1  0  0  0  0
 23 24  1  0  0  0  0
 24 41  1  0  0  0  0
 24 42  1  0  0  0  0
 24 43  1  0  0  0  0
M  END
> <From>
www.bindingDB.org

> <BindingDB Reactant_set_id>
51108772

> <Ligand InChI>
InChI=1S/C19H19F2NO2/c1-24-18-8-3-2-5-14(18)13-9-10-22(12-13)19(23)11-15-16(20)6-4-7-17(15)21/h2-8,13H,9-12H2,1H3

> <Ligand InChI Key>
LNUWPMFROIHGLW-UHFFFAOYSA-N

> <BindingDB MonomerID>
50452499

> <BindingDB Ligand Name>
CHEMBL4213777

> <Target Name>
Enoyl-[acyl-carrier-protein] reductase [NADPH] FabI [9-251]

> <Target Source Organism According to Curator or DataSource>
Staphylococcus aureus

> <Ki (nM)>


> <IC50 (nM)>
 5700

> <Kd (nM)>


> <EC50 (nM)>


> <kon (M-1-s-1)>


> <koff (s-1)>


> <pH>


> <Temp C>


> <Curation/DataSource>
ChEMBL

> <Article DOI>
10.1016/j.bmc.2017.11.018

> <BindingDB Entry DOI>
10.7270/Q2QF8WF7

> <PMID>
29162308

> <PubChem AID>


> <Patent Number>


> <Authors>
Kwon, J; Mistry, T; Ren, J; Johnson, ME; Mehboob, S

> <Institution>
Novalex Therapeutics

> <Link to Ligand in BindingDB>
http://www.bindingdb.org/bind/chemsearch/marvin/MolStructure.jsp?monomerid=50452499

> <Link to Ligand-Target Pair in BindingDB>
http://www.bindingdb.org/jsp/dbsearch/PrimarySearch_ki.jsp?energyterm=kJ/mole&tag=pol&polymerid=50004708&target=Enoyl-%5Bacyl-carrier-protein%5D+reductase+%5BNADPH%5D+FabI+%5B9-251%5D&column=ki&startPg=0&Increment=50&submit=Search

> <Link to Ligand-Target Pair in BindingDB>
http://www.bindingdb.org/jsp/dbsearch/PrimarySearch_ki.jsp?energyterm=kJ/mole&tag=r21&monomerid=50452499&enzyme=Enoyl-%5Bacyl-carrier-protein%5D+reductase+%5BNADPH%5D+FabI+%5B9-251%5D&column=ki&startPg=0&Increment=50&submit=Search

> <Ligand HET ID in PDB>


> <PDB ID(s) for Ligand-Target Complex>


> <PubChem CID of Ligand>
119106337

> <PubChem SID of Ligand>
433921355

> <ChEBI ID of Ligand>


> <ChEMBL ID of Ligand>


> <DrugBank ID of Ligand>


> <IUPHAR_GRAC ID of Ligand>


> <KEGG ID of Ligand>


> <ZINC ID of Ligand>


> <Number of Protein Chains in Target (bigger than 1 implies a multichain complex)>
1

> <BindingDB Target Chain Sequence>
YVIMGIANKRSIAFGVAKVLDQLGAKLVFTYRKERSRKELEKLLEQLNQPEAHLYQIDVQSDEEVINGFEQIGKDVGNIDGVYHSIAFANMEDLRGRFSETSREGFLLAQDISSYSLTIVAHEAKKLMPEGGSIVATTYLGGEFAVQNYNVMGVAKASLEANVKYLALDLGPDNIRVNAISAGPIRTLSAKGVGGFNTILKEIEERAPLKRNVDQVEVGKTAAYLLSDLSSGVTGENIHVDSG

> <PDB ID(s) of Target Chain>
3GNS,3GNT,3GR6,4ALI,4ALJ,4ALK,4ALL,4ALM,4ALN,4BNF,4BNG,4BNH,4BNI,4BNJ,4BNK,4BNL,4BNM,4BNN,4CUZ,4CV0,4CV1,4D41,4D42,4D43,4D44,4D45,4FS3,4NZ9,6TBB,6TBC,6YUR

> <UniProt (SwissProt) Recommended Name of Target Chain>
Enoyl-[acyl-carrier-protein] reductase [NADPH] FabI

> <UniProt (SwissProt) Entry Name of Target Chain>
FABI_STAAR

> <UniProt (SwissProt) Primary ID of Target Chain>
Q6GI75

> <UniProt (SwissProt) Secondary ID(s) of Target Chain>


> <UniProt (SwissProt) Alternative ID(s) of Target Chain>


> <UniProt (TrEMBL) Submitted Name of Target Chain>


> <UniProt (TrEMBL) Entry Name of Target Chain>


> <UniProt (TrEMBL) Primary ID of Target Chain>


> <UniProt (TrEMBL) Secondary ID(s) of Target Chain>


> <UniProt (TrEMBL) Alternative ID(s) of Target Chain>


$$$$
BindingDB_50338300_mol_1

Vconf v2.0 Academic SN VC001-00000579
 80 86  0  0  0  0  0  0  0  0999 V2000
    4.9720   -4.4340    1.9100 C   0  0  0  0  0  0  0  0  0  0  0
    4.6140   -3.2800    2.5010 C   0  0  0  0  0  0  0  0  0  0  0
    4.1010   -2.2610    1.7850 C   0  0  0  0  0  0  0  0  0  0  0
    3.9410   -2.3810    0.4590 C   0  0  0  0  0  0  0  0  0  0  0
    4.2960   -3.5250   -0.1440 O   0  0  0  0  0  0  0  0  0  0  0
    4.7980   -4.5420    0.5650 C   0  0  0  0  0  0  0  0  0  0  0
    4.7630   -3.1010    3.8070 O   0  0  0  0  0  0  0  0  0  0  0
    5.0820   -5.5580   -0.0520 O   0  0  0  0  0  0  0  0  0  0  0
    3.4270   -1.3640   -0.2680 C   0  0  0  0  0  0  0  0  0  0  0
    3.2260   -1.4500   -1.5910 C   0  0  0  0  0  0  0  0  0  0  0
    2.7070   -0.4300   -2.3700 C   0  0  0  0  0  0  0  0  0  0  0
    3.0950   -0.3420   -3.7250 C   0  0  0  0  0  0  0  0  0  0  0
    2.5810    0.6690   -4.5550 C   0  0  0  0  0  0  0  0  0  0  0
    1.6670    1.6030   -4.0420 C   0  0  0  0  0  0  0  0  0  0  0
    1.2640    1.5230   -2.6970 C   0  0  0  0  0  0  0  0  0  0  0
    1.7790    0.5110   -1.8680 C   0  0  0  0  0  0  0  0  0  0  0
    1.1730    2.5730   -4.8410 O   0  0  0  0  0  0  0  0  0  0  0
    0.3780    2.4200   -2.2050 O   0  0  0  0  0  0  0  0  0  0  0
    6.8940   -5.7830    2.6190 C   0  0  0  0  0  0  0  0  0  0  0
    5.5080   -5.4800    2.6470 C   0  0  0  0  0  0  0  0  0  0  0
    4.6400   -6.2720    3.4260 C   0  0  0  0  0  0  0  0  0  0  0
    5.1350   -7.3600    4.1630 C   0  0  0  0  0  0  0  0  0  0  0
    6.5050   -7.6690    4.1250 C   0  0  0  0  0  0  0  0  0  0  0
    7.3780   -6.8850    3.3540 C   0  0  0  0  0  0  0  0  0  0  0
    6.9780   -8.7210    4.8320 O   0  0  0  0  0  0  0  0  0  0  0
    4.2920   -8.1120    4.9030 O   0  0  0  0  0  0  0  0  0  0  0
    7.7980   -5.0510    1.8770 C   0  0  0  0  0  0  0  0  0  0  0
    8.0050   -3.7420    2.0770 C   0  0  0  0  0  0  0  0  0  0  0
    8.8890   -3.0240    1.3530 C   0  0  0  0  0  0  0  0  0  0  0
    9.5670   -3.6110    0.3440 O   0  0  0  0  0  0  0  0  0  0  0
   10.4440   -2.9090   -0.3910 C   0  0  0  0  0  0  0  0  0  0  0
    9.0970   -1.7250    1.6280 C   0  0  0  0  0  0  0  0  0  0  0
    9.9890   -1.0420    0.8940 C   0  0  0  0  0  0  0  0  0  0  0
   10.6660   -1.6160   -0.0950 C   0  0  0  0  0  0  0  0  0  0  0
   11.5430   -0.6900   -0.7460 C   0  0  1  0  0  0  0  0  0  0  0
   11.3680    0.5570    0.1640 C   0  0  2  0  0  0  0  0  0  0  0
   10.2750    0.2390    1.0350 O   0  0  0  0  0  0  0  0  0  0  0
   11.0160   -3.4480   -1.3250 O   0  0  0  0  0  0  0  0  0  0  0
   12.9130   -1.1550   -0.7810 C   0  0  0  0  0  0  0  0  0  0  0
   13.5280   -1.4480    0.3770 O   0  0  0  0  0  0  0  0  0  0  0
   14.7970   -1.8780    0.3670 C   0  0  0  0  0  0  0  0  0  0  0
   15.4600   -2.0260   -0.7930 C   0  0  0  0  0  0  0  0  0  0  0
   14.8400   -1.7350   -1.9410 C   0  0  0  0  0  0  0  0  0  0  0
   13.5670   -1.2970   -1.9420 C   0  0  0  0  0  0  0  0  0  0  0
   15.3480   -2.1310    1.4250 O   0  0  0  0  0  0  0  0  0  0  0
   15.4880   -1.8830   -3.0830 O   0  0  0  0  0  0  0  0  0  0  0
   11.1140    1.8100   -0.5800 C   0  0  0  0  0  0  0  0  0  0  0
    9.9440    1.9580   -1.3540 C   0  0  0  0  0  0  0  0  0  0  0
    9.7020    3.1480   -2.0610 C   0  0  0  0  0  0  0  0  0  0  0
   10.6300    4.2040   -2.0000 C   0  0  0  0  0  0  0  0  0  0  0
   11.7980    4.0650   -1.2320 C   0  0  0  0  0  0  0  0  0  0  0
   12.0380    2.8740   -0.5260 C   0  0  0  0  0  0  0  0  0  0  0
    8.5790    3.2780   -2.8010 O   0  0  0  0  0  0  0  0  0  0  0
   10.3950    5.3500   -2.6790 O   0  0  0  0  0  0  0  0  0  0  0
    3.8440   -1.4220    2.2480 H   0  0  0  0  0  0  0  0  0  0  0
    4.4640   -2.2300    4.1410 H   0  0  0  0  0  0  0  0  0  0  0
    3.1960   -0.5210    0.2020 H   0  0  0  0  0  0  0  0  0  0  0
    3.4820   -2.2930   -2.0500 H   0  0  0  0  0  0  0  0  0  0  0
    3.7580   -1.0140   -4.1140 H   0  0  0  0  0  0  0  0  0  0  0
    2.8720    0.7240   -5.5320 H   0  0  0  0  0  0  0  0  0  0  0
    1.4680    0.4610   -0.8980 H   0  0  0  0  0  0  0  0  0  0  0
    0.5410    3.1720   -4.3890 H   0  0  0  0  0  0  0  0  0  0  0
    0.1470    2.2890   -1.2620 H   0  0  0  0  0  0  0  0  0  0  0
    3.6400   -6.0620    3.4560 H   0  0  0  0  0  0  0  0  0  0  0
    8.3720   -7.1170    3.3330 H   0  0  0  0  0  0  0  0  0  0  0
    7.9430   -8.8690    4.7450 H   0  0  0  0  0  0  0  0  0  0  0
    4.7350   -8.8510    5.3730 H   0  0  0  0  0  0  0  0  0  0  0
    8.3250   -5.5290    1.1840 H   0  0  0  0  0  0  0  0  0  0  0
    7.4900   -3.2800    2.7900 H   0  0  0  0  0  0  0  0  0  0  0
    8.6090   -1.2680    2.3610 H   0  0  0  0  0  0  0  0  0  0  0
   11.1650   -0.5100   -1.7560 H   0  0  0  0  0  0  0  0  0  0  0
   12.2520    0.6740    0.7970 H   0  0  0  0  0  0  0  0  0  0  0
   16.3980   -2.3480   -0.7970 H   0  0  0  0  0  0  0  0  0  0  0
   13.1180   -1.0840   -2.8000 H   0  0  0  0  0  0  0  0  0  0  0
   14.9650   -1.6690   -3.8840 H   0  0  0  0  0  0  0  0  0  0  0
    9.2650    1.1980   -1.4010 H   0  0  0  0  0  0  0  0  0  0  0
   12.4750    4.8270   -1.1860 H   0  0  0  0  0  0  0  0  0  0  0
   12.8900    2.7820    0.0290 H   0  0  0  0  0  0  0  0  0  0  0
    8.5070    4.1440   -3.2580 H   0  0  0  0  0  0  0  0  0  0  0
   11.0880    6.0350   -2.5740 H   0  0  0  0  0  0  0  0  0  0  0
  1  2  2  0  0  0  0
  1  6  1  0  0  0  0
  1 20  1  0  0  0  0
  2  3  1  0  0  0  0
  2  7  1  0  0  0  0
  3  4  2  0  0  0  0
  3 55  1  0  0  0  0
  4  5  1  0  0  0  0
  4  9  1  0  0  0  0
  5  6  1  0  0  0  0
  6  8  2  0  0  0  0
  7 56  1  0  0  0  0
  9 10  2  0  0  0  0
  9 57  1  0  0  0  0
 10 11  1  0  0  0  0
 10 58  1  0  0  0  0
 11 12  1  0  0  0  0
 11 16  2  0  0  0  0
 12 13  2  0  0  0  0
 12 59  1  0  0  0  0
 13 14  1  0  0  0  0
 13 60  1  0  0  0  0
 14 15  2  0  0  0  0
 14 17  1  0  0  0  0
 15 16  1  0  0  0  0
 15 18  1  0  0  0  0
 16 61  1  0  0  0  0
 17 62  1  0  0  0  0
 18 63  1  0  0  0  0
 19 20  2  0  0  0  0
 19 24  1  0  0  0  0
 19 27  1  0  0  0  0
 20 21  1  0  0  0  0
 21 22  2  0  0  0  0
 21 64  1  0  0  0  0
 22 23  1  0  0  0  0
 22 26  1  0  0  0  0
 23 24  2  0  0  0  0
 23 25  1  0  0  0  0
 24 65  1  0  0  0  0
 25 66  1  0  0  0  0
 26 67  1  0  0  0  0
 27 28  2  0  0  0  0
 27 68  1  0  0  0  0
 28 29  1  0  0  0  0
 28 69  1  0  0  0  0
 29 30  1  0  0  0  0
 29 32  2  0  0  0  0
 30 31  1  0  0  0  0
 31 34  1  0  0  0  0
 31 38  2  0  0  0  0
 32 33  1  0  0  0  0
 32 70  1  0  0  0  0
 33 34  2  0  0  0  0
 33 37  1  0  0  0  0
 34 35  1  0  0  0  0
 35 36  1  0  0  0  0
 35 39  1  1  0  0  0
 35 71  1  0  0  0  0
 36 37  1  0  0  0  0
 36 47  1  6  0  0  0
 36 72  1  0  0  0  0
 39 40  1  0  0  0  0
 39 44  2  0  0  0  0
 40 41  1  0  0  0  0
 41 42  1  0  0  0  0
 41 45  2  0  0  0  0
 42 43  2  0  0  0  0
 42 73  1  0  0  0  0
 43 44  1  0  0  0  0
 43 46  1  0  0  0  0
 44 74  1  0  0  0  0
 46 75  1  0  0  0  0
 47 48  2  0  0  0  0
 47 52  1  0  0  0  0
 48 49  1  0  0  0  0
 48 76  1  0  0  0  0
 49 50  2  0  0  0  0
 49 53  1  0  0  0  0
 50 51  1  0  0  0  0
 50 54  1  0  0  0  0
 51 52  2  0  0  0  0
 51 77  1  0  0  0  0
 52 78  1  0  0  0  0
 53 79  1  0  0  0  0
 54 80  1  0  0  0  0
M  END
> <From>
www.bindingDB.org

> <BindingDB Reactant_set_id>
50626399

> <Ligand InChI>
InChI=1S/C39H26O15/c40-20-12-31(53-33(48)13-20)35-36-32(54-37(35)19-4-8-25(42)27(44)11-19)15-22(52-39(36)50)6-3-18-10-28(45)29(46)16-23(18)34-30(47)14-21(51-38(34)49)5-1-17-2-7-24(41)26(43)9-17/h1-16,35,37,40-47H/b5-1+,6-3+/t35-,37+/m0/s1

> <Ligand InChI Key>
KAEWYNFUJFCGQA-UPSVAIHWSA-N

> <BindingDB MonomerID>
50338300

> <BindingDB Ligand Name>
CHEMBL1682259::phellinstatin

> <Target Name>
Enoyl-[acyl-carrier-protein] reductase [NADPH] FabI [9-251]

> <Target Source Organism According to Curator or DataSource>
Staphylococcus aureus

> <Ki (nM)>


> <IC50 (nM)>
 6000

> <Kd (nM)>


> <EC50 (nM)>


> <kon (M-1-s-1)>


> <koff (s-1)>


> <pH>


> <Temp C>


> <Curation/DataSource>
ChEMBL

> <Article DOI>
10.1016/j.bmcl.2011.01.080

> <BindingDB Entry DOI>
10.7270/Q29W0FRM

> <PMID>
21316961

> <PubChem AID>


> <Patent Number>


> <Authors>
Cho, JY; Kwon, YJ; Sohn, MJ; Seok, SJ; Kim, WG

> <Institution>
Korea Research Institute of Bioscience and Biotechnology

> <Link to Ligand in BindingDB>
http://www.bindingdb.org/bind/chemsearch/marvin/MolStructure.jsp?monomerid=50338300

> <Link to Ligand-Target Pair in BindingDB>
http://www.bindingdb.org/jsp/dbsearch/PrimarySearch_ki.jsp?energyterm=kJ/mole&tag=pol&polymerid=50004708&target=Enoyl-%5Bacyl-carrier-protein%5D+reductase+%5BNADPH%5D+FabI+%5B9-251%5D&column=ki&startPg=0&Increment=50&submit=Search

> <Link to Ligand-Target Pair in BindingDB>
http://www.bindingdb.org/jsp/dbsearch/PrimarySearch_ki.jsp?energyterm=kJ/mole&tag=r21&monomerid=50338300&enzyme=Enoyl-%5Bacyl-carrier-protein%5D+reductase+%5BNADPH%5D+FabI+%5B9-251%5D&column=ki&startPg=0&Increment=50&submit=Search

> <Ligand HET ID in PDB>


> <PDB ID(s) for Ligand-Target Complex>


> <PubChem CID of Ligand>
54728876

> <PubChem SID of Ligand>
125088402

> <ChEBI ID of Ligand>


> <ChEMBL ID of Ligand>
CHEMBL1682259

> <DrugBank ID of Ligand>


> <IUPHAR_GRAC ID of Ligand>


> <KEGG ID of Ligand>


> <ZINC ID of Ligand>
ZINC95547488

> <Number of Protein Chains in Target (bigger than 1 implies a multichain complex)>
1

> <BindingDB Target Chain Sequence>
YVIMGIANKRSIAFGVAKVLDQLGAKLVFTYRKERSRKELEKLLEQLNQPEAHLYQIDVQSDEEVINGFEQIGKDVGNIDGVYHSIAFANMEDLRGRFSETSREGFLLAQDISSYSLTIVAHEAKKLMPEGGSIVATTYLGGEFAVQNYNVMGVAKASLEANVKYLALDLGPDNIRVNAISAGPIRTLSAKGVGGFNTILKEIEERAPLKRNVDQVEVGKTAAYLLSDLSSGVTGENIHVDSG

> <PDB ID(s) of Target Chain>
3GNS,3GNT,3GR6,4ALI,4ALJ,4ALK,4ALL,4ALM,4ALN,4BNF,4BNG,4BNH,4BNI,4BNJ,4BNK,4BNL,4BNM,4BNN,4CUZ,4CV0,4CV1,4D41,4D42,4D43,4D44,4D45,4FS3,4NZ9,6TBB,6TBC,6YUR

> <UniProt (SwissProt) Recommended Name of Target Chain>
Enoyl-[acyl-carrier-protein] reductase [NADPH] FabI

> <UniProt (SwissProt) Entry Name of Target Chain>
FABI_STAAR

> <UniProt (SwissProt) Primary ID of Target Chain>
Q6GI75

> <UniProt (SwissProt) Secondary ID(s) of Target Chain>


> <UniProt (SwissProt) Alternative ID(s) of Target Chain>


> <UniProt (TrEMBL) Submitted Name of Target Chain>


> <UniProt (TrEMBL) Entry Name of Target Chain>


> <UniProt (TrEMBL) Primary ID of Target Chain>


> <UniProt (TrEMBL) Secondary ID(s) of Target Chain>


> <UniProt (TrEMBL) Alternative ID(s) of Target Chain>


$$$$
BindingDB_50452507_mol_1

Vconf v2.0 Academic SN VC001-00000579
 30 31  0  0  0  0  0  0  0  0999 V2000
    4.0250   -2.4040    0.5970 C   0  0  0  0  0  0  0  0  0  0  0
    3.9140   -3.8140    0.5740 C   0  0  0  0  0  0  0  0  0  0  0
    2.8060   -1.6980    0.5150 C   0  0  0  0  0  0  0  0  0  0  0
    2.6970   -4.4030    0.4800 N   0  0  0  0  0  0  0  0  0  0  0
    5.2240   -1.7510    0.6900 N   0  3  0  0  0  0  0  0  0  0  0
    1.6220   -2.3440    0.4240 N   0  0  0  0  0  0  0  0  0  0  0
    1.5520   -3.6920    0.4050 C   0  0  0  0  0  0  0  0  0  0  0
    5.0010   -4.6160    0.6430 N   0  0  0  0  0  0  0  0  0  0  0
    5.3130   -0.5510    0.7060 O   0  5  0  0  0  0  0  0  0  0  0
    2.7610   -0.3500    0.5240 O   0  0  0  0  0  0  0  0  0  0  0
    6.2740   -2.3320    0.7610 O   0  0  0  0  0  0  0  0  0  0  0
    7.9360   -7.9280    1.8190 N   0  0  0  0  0  0  0  0  0  0  0
    6.2840   -6.6110    0.6880 C   0  0  0  0  0  0  0  0  0  0  0
    4.9290   -6.0360    0.6160 C   0  0  0  0  0  0  0  0  0  0  0
    6.6810   -7.4130    1.7760 C   0  0  0  0  0  0  0  0  0  0  0
    0.2650   -4.3780    0.3080 C   0  0  0  0  0  0  0  0  0  0  0
    8.8540   -7.7080    0.8450 C   0  0  0  0  0  0  0  0  0  0  0
    7.2210   -6.3740   -0.3360 C   0  0  0  0  0  0  0  0  0  0  0
    8.5130   -6.9190   -0.2640 C   0  0  0  0  0  0  0  0  0  0  0
    5.8780   -4.2060    0.7120 H   0  0  0  0  0  0  0  0  0  0  0
    1.8560    0.0200    0.4600 H   0  0  0  0  0  0  0  0  0  0  0
    4.3230   -6.3780    1.4580 H   0  0  0  0  0  0  0  0  0  0  0
    4.4520   -6.3640   -0.3100 H   0  0  0  0  0  0  0  0  0  0  0
    6.0300   -7.6080    2.5360 H   0  0  0  0  0  0  0  0  0  0  0
   -0.5460   -3.6500    0.2550 H   0  0  0  0  0  0  0  0  0  0  0
    0.2510   -4.9970   -0.5900 H   0  0  0  0  0  0  0  0  0  0  0
    0.1240   -5.0100    1.1840 H   0  0  0  0  0  0  0  0  0  0  0
    9.7860   -8.1150    0.9200 H   0  0  0  0  0  0  0  0  0  0  0
    6.9630   -5.7980   -1.1380 H   0  0  0  0  0  0  0  0  0  0  0
    9.1920   -6.7460   -1.0050 H   0  0  0  0  0  0  0  0  0  0  0
  1  2  1  0  0  0  0
  1  3  2  0  0  0  0
  1  5  1  0  0  0  0
  2  4  2  0  0  0  0
  2  8  1  0  0  0  0
  3  6  1  0  0  0  0
  3 10  1  0  0  0  0
  4  7  1  0  0  0  0
  5  9  1  0  0  0  0
  5 11  2  0  0  0  0
  6  7  2  0  0  0  0
  7 16  1  0  0  0  0
  8 14  1  0  0  0  0
  8 20  1  0  0  0  0
 10 21  1  0  0  0  0
 12 15  1  0  0  0  0
 12 17  2  0  0  0  0
 13 14  1  0  0  0  0
 13 15  2  0  0  0  0
 13 18  1  0  0  0  0
 14 22  1  0  0  0  0
 14 23  1  0  0  0  0
 15 24  1  0  0  0  0
 16 25  1  0  0  0  0
 16 26  1  0  0  0  0
 16 27  1  0  0  0  0
 17 19  1  0  0  0  0
 17 28  1  0  0  0  0
 18 19  2  0  0  0  0
 18 29  1  0  0  0  0
 19 30  1  0  0  0  0
M  CHG  1   5   1
M  CHG  1   9  -1
M  END
> <From>
www.bindingDB.org

> <BindingDB Reactant_set_id>
51108782

> <Ligand InChI>
InChI=1S/C15H15ClN2OS/c16-13-4-2-1-3-11(13)9-14(19)18-7-5-12(10-18)15-17-6-8-20-15/h1-4,6,8,12H,5,7,9-10H2

> <Ligand InChI Key>
WMYYVTZDNMPJTP-UHFFFAOYSA-N

> <BindingDB MonomerID>
50452507

> <BindingDB Ligand Name>
CHEMBL4205014

> <Target Name>
Enoyl-[acyl-carrier-protein] reductase [NADPH] FabI [9-251]

> <Target Source Organism According to Curator or DataSource>
Staphylococcus aureus

> <Ki (nM)>


> <IC50 (nM)>
 6000

> <Kd (nM)>


> <EC50 (nM)>


> <kon (M-1-s-1)>


> <koff (s-1)>


> <pH>


> <Temp C>


> <Curation/DataSource>
ChEMBL

> <Article DOI>
10.1016/j.bmc.2017.11.018

> <BindingDB Entry DOI>
10.7270/Q2QF8WF7

> <PMID>
29162308

> <PubChem AID>


> <Patent Number>


> <Authors>
Kwon, J; Mistry, T; Ren, J; Johnson, ME; Mehboob, S

> <Institution>
Novalex Therapeutics

> <Link to Ligand in BindingDB>
http://www.bindingdb.org/bind/chemsearch/marvin/MolStructure.jsp?monomerid=50452507

> <Link to Ligand-Target Pair in BindingDB>
http://www.bindingdb.org/jsp/dbsearch/PrimarySearch_ki.jsp?energyterm=kJ/mole&tag=pol&polymerid=50004708&target=Enoyl-%5Bacyl-carrier-protein%5D+reductase+%5BNADPH%5D+FabI+%5B9-251%5D&column=ki&startPg=0&Increment=50&submit=Search

> <Link to Ligand-Target Pair in BindingDB>
http://www.bindingdb.org/jsp/dbsearch/PrimarySearch_ki.jsp?energyterm=kJ/mole&tag=r21&monomerid=50452507&enzyme=Enoyl-%5Bacyl-carrier-protein%5D+reductase+%5BNADPH%5D+FabI+%5B9-251%5D&column=ki&startPg=0&Increment=50&submit=Search

> <Ligand HET ID in PDB>


> <PDB ID(s) for Ligand-Target Complex>


> <PubChem CID of Ligand>
122243070

> <PubChem SID of Ligand>
433921363

> <ChEBI ID of Ligand>


> <ChEMBL ID of Ligand>


> <DrugBank ID of Ligand>


> <IUPHAR_GRAC ID of Ligand>


> <KEGG ID of Ligand>


> <ZINC ID of Ligand>


> <Number of Protein Chains in Target (bigger than 1 implies a multichain complex)>
1

> <BindingDB Target Chain Sequence>
YVIMGIANKRSIAFGVAKVLDQLGAKLVFTYRKERSRKELEKLLEQLNQPEAHLYQIDVQSDEEVINGFEQIGKDVGNIDGVYHSIAFANMEDLRGRFSETSREGFLLAQDISSYSLTIVAHEAKKLMPEGGSIVATTYLGGEFAVQNYNVMGVAKASLEANVKYLALDLGPDNIRVNAISAGPIRTLSAKGVGGFNTILKEIEERAPLKRNVDQVEVGKTAAYLLSDLSSGVTGENIHVDSG

> <PDB ID(s) of Target Chain>
3GNS,3GNT,3GR6,4ALI,4ALJ,4ALK,4ALL,4ALM,4ALN,4BNF,4BNG,4BNH,4BNI,4BNJ,4BNK,4BNL,4BNM,4BNN,4CUZ,4CV0,4CV1,4D41,4D42,4D43,4D44,4D45,4FS3,4NZ9,6TBB,6TBC,6YUR

> <UniProt (SwissProt) Recommended Name of Target Chain>
Enoyl-[acyl-carrier-protein] reductase [NADPH] FabI

> <UniProt (SwissProt) Entry Name of Target Chain>
FABI_STAAR

> <UniProt (SwissProt) Primary ID of Target Chain>
Q6GI75

> <UniProt (SwissProt) Secondary ID(s) of Target Chain>


> <UniProt (SwissProt) Alternative ID(s) of Target Chain>


> <UniProt (TrEMBL) Submitted Name of Target Chain>


> <UniProt (TrEMBL) Entry Name of Target Chain>


> <UniProt (TrEMBL) Primary ID of Target Chain>


> <UniProt (TrEMBL) Secondary ID(s) of Target Chain>


> <UniProt (TrEMBL) Alternative ID(s) of Target Chain>


$$$$
BindingDB_50452509_mol_1

Vconf v2.0 Academic SN VC001-00000579
 33 34  0  0  0  0  0  0  0  0999 V2000
    3.9980   -2.3640    0.5670 C   0  0  0  0  0  0  0  0  0  0  0
    3.9320   -3.7730    0.5470 C   0  0  0  0  0  0  0  0  0  0  0
    2.7190   -4.3750    0.4900 N   0  0  0  0  0  0  0  0  0  0  0
    2.7730   -1.6690    0.5250 C   0  0  0  0  0  0  0  0  0  0  0
    1.5980   -2.3410    0.4690 N   0  0  0  0  0  0  0  0  0  0  0
    1.5590   -3.6930    0.4510 C   0  0  0  0  0  0  0  0  0  0  0
    5.1290   -1.7290    0.6160 C   0  0  0  0  0  0  0  0  0  0  0
    6.1290   -1.1670    0.6590 N   0  0  0  0  0  0  0  0  0  0  0
    2.7170   -0.3190    0.5410 O   0  0  0  0  0  0  0  0  0  0  0
    5.0210   -4.5830    0.5870 N   0  0  0  0  0  0  0  0  0  0  0
    4.8670   -5.9970    0.5340 C   0  0  0  0  0  0  0  0  0  0  0
    0.3080   -4.4440    0.3980 C   0  0  0  0  0  0  0  0  0  0  0
    5.9590   -8.2160    0.5310 C   0  0  0  0  0  0  0  0  0  0  0
    6.1990   -6.7600    0.6420 C   0  0  0  0  0  0  0  0  0  0  0
    5.3100   -8.9130    1.5730 C   0  0  0  0  0  0  0  0  0  0  0
    6.3420   -8.9210   -0.6280 C   0  0  0  0  0  0  0  0  0  0  0
    6.0930  -10.3000   -0.7400 C   0  0  0  0  0  0  0  0  0  0  0
    5.0640  -10.2930    1.4630 C   0  0  0  0  0  0  0  0  0  0  0
    5.4570  -10.9870    0.3070 C   0  0  0  0  0  0  0  0  0  0  0
    1.8070    0.0420    0.5120 H   0  0  0  0  0  0  0  0  0  0  0
    5.9090   -4.1940    0.6470 H   0  0  0  0  0  0  0  0  0  0  0
    4.2150   -6.3110    1.3530 H   0  0  0  0  0  0  0  0  0  0  0
    4.3920   -6.2580   -0.4150 H   0  0  0  0  0  0  0  0  0  0  0
   -0.5420   -3.7660    0.3480 H   0  0  0  0  0  0  0  0  0  0  0
    0.3130   -5.0860   -0.4820 H   0  0  0  0  0  0  0  0  0  0  0
    0.2270   -5.0630    1.2910 H   0  0  0  0  0  0  0  0  0  0  0
    6.8600   -6.4180   -0.1570 H   0  0  0  0  0  0  0  0  0  0  0
    6.6720   -6.5370    1.6000 H   0  0  0  0  0  0  0  0  0  0  0
    5.0120   -8.4160    2.4130 H   0  0  0  0  0  0  0  0  0  0  0
    6.7940   -8.4290   -1.4000 H   0  0  0  0  0  0  0  0  0  0  0
    6.3690  -10.8020   -1.5850 H   0  0  0  0  0  0  0  0  0  0  0
    4.5950  -10.7900    2.2210 H   0  0  0  0  0  0  0  0  0  0  0
    5.2800  -11.9890    0.2280 H   0  0  0  0  0  0  0  0  0  0  0
  1  2  1  0  0  0  0
  1  4  2  0  0  0  0
  1  7  1  0  0  0  0
  2  3  2  0  0  0  0
  2 10  1  0  0  0  0
  3  6  1  0  0  0  0
  4  5  1  0  0  0  0
  4  9  1  0  0  0  0
  5  6  2  0  0  0  0
  6 12  1  0  0  0  0
  7  8  3  0  0  0  0
  9 20  1  0  0  0  0
 10 11  1  0  0  0  0
 10 21  1  0  0  0  0
 11 14  1  0  0  0  0
 11 22  1  0  0  0  0
 11 23  1  0  0  0  0
 12 24  1  0  0  0  0
 12 25  1  0  0  0  0
 12 26  1  0  0  0  0
 13 14  1  0  0  0  0
 13 15  2  0  0  0  0
 13 16  1  0  0  0  0
 14 27  1  0  0  0  0
 14 28  1  0  0  0  0
 15 18  1  0  0  0  0
 15 29  1  0  0  0  0
 16 17  2  0  0  0  0
 16 30  1  0  0  0  0
 17 19  1  0  0  0  0
 17 31  1  0  0  0  0
 18 19  2  0  0  0  0
 18 32  1  0  0  0  0
 19 33  1  0  0  0  0
M  END
> <From>
www.bindingDB.org

> <BindingDB Reactant_set_id>
51108785

> <Ligand InChI>
InChI=1S/C18H17F2NO/c19-16-8-4-7-14(18(16)20)11-17(22)21-10-9-15(12-21)13-5-2-1-3-6-13/h1-8,15H,9-12H2

> <Ligand InChI Key>
RZTOJYNAWPILPM-UHFFFAOYSA-N

> <BindingDB MonomerID>
50452509

> <BindingDB Ligand Name>
CHEMBL4217672

> <Target Name>
Enoyl-[acyl-carrier-protein] reductase [NADPH] FabI [9-251]

> <Target Source Organism According to Curator or DataSource>
Staphylococcus aureus

> <Ki (nM)>


> <IC50 (nM)>
 7300

> <Kd (nM)>


> <EC50 (nM)>


> <kon (M-1-s-1)>


> <koff (s-1)>


> <pH>


> <Temp C>


> <Curation/DataSource>
ChEMBL

> <Article DOI>
10.1016/j.bmc.2017.11.018

> <BindingDB Entry DOI>
10.7270/Q2QF8WF7

> <PMID>
29162308

> <PubChem AID>


> <Patent Number>


> <Authors>
Kwon, J; Mistry, T; Ren, J; Johnson, ME; Mehboob, S

> <Institution>
Novalex Therapeutics

> <Link to Ligand in BindingDB>
http://www.bindingdb.org/bind/chemsearch/marvin/MolStructure.jsp?monomerid=50452509

> <Link to Ligand-Target Pair in BindingDB>
http://www.bindingdb.org/jsp/dbsearch/PrimarySearch_ki.jsp?energyterm=kJ/mole&tag=pol&polymerid=50004708&target=Enoyl-%5Bacyl-carrier-protein%5D+reductase+%5BNADPH%5D+FabI+%5B9-251%5D&column=ki&startPg=0&Increment=50&submit=Search

> <Link to Ligand-Target Pair in BindingDB>
http://www.bindingdb.org/jsp/dbsearch/PrimarySearch_ki.jsp?energyterm=kJ/mole&tag=r21&monomerid=50452509&enzyme=Enoyl-%5Bacyl-carrier-protein%5D+reductase+%5BNADPH%5D+FabI+%5B9-251%5D&column=ki&startPg=0&Increment=50&submit=Search

> <Ligand HET ID in PDB>


> <PDB ID(s) for Ligand-Target Complex>


> <PubChem CID of Ligand>
119106335

> <PubChem SID of Ligand>
433921365

> <ChEBI ID of Ligand>


> <ChEMBL ID of Ligand>


> <DrugBank ID of Ligand>


> <IUPHAR_GRAC ID of Ligand>


> <KEGG ID of Ligand>


> <ZINC ID of Ligand>


> <Number of Protein Chains in Target (bigger than 1 implies a multichain complex)>
1

> <BindingDB Target Chain Sequence>
YVIMGIANKRSIAFGVAKVLDQLGAKLVFTYRKERSRKELEKLLEQLNQPEAHLYQIDVQSDEEVINGFEQIGKDVGNIDGVYHSIAFANMEDLRGRFSETSREGFLLAQDISSYSLTIVAHEAKKLMPEGGSIVATTYLGGEFAVQNYNVMGVAKASLEANVKYLALDLGPDNIRVNAISAGPIRTLSAKGVGGFNTILKEIEERAPLKRNVDQVEVGKTAAYLLSDLSSGVTGENIHVDSG

> <PDB ID(s) of Target Chain>
3GNS,3GNT,3GR6,4ALI,4ALJ,4ALK,4ALL,4ALM,4ALN,4BNF,4BNG,4BNH,4BNI,4BNJ,4BNK,4BNL,4BNM,4BNN,4CUZ,4CV0,4CV1,4D41,4D42,4D43,4D44,4D45,4FS3,4NZ9,6TBB,6TBC,6YUR

> <UniProt (SwissProt) Recommended Name of Target Chain>
Enoyl-[acyl-carrier-protein] reductase [NADPH] FabI

> <UniProt (SwissProt) Entry Name of Target Chain>
FABI_STAAR

> <UniProt (SwissProt) Primary ID of Target Chain>
Q6GI75

> <UniProt (SwissProt) Secondary ID(s) of Target Chain>


> <UniProt (SwissProt) Alternative ID(s) of Target Chain>


> <UniProt (TrEMBL) Submitted Name of Target Chain>


> <UniProt (TrEMBL) Entry Name of Target Chain>


> <UniProt (TrEMBL) Primary ID of Target Chain>


> <UniProt (TrEMBL) Secondary ID(s) of Target Chain>


> <UniProt (TrEMBL) Alternative ID(s) of Target Chain>


$$$$
BindingDB_50349974_mol_1

Vconf v2.0 Academic SN VC001-00000579
 84 89  0  0  0  0  0  0  0  0999 V2000
   13.5430  -23.3920    1.8430 C   0  0  0  0  0  0  0  0  0  0  0
   14.8400  -20.8840    1.5150 C   0  0  0  0  0  0  0  0  0  0  0
   13.4530  -20.9470    1.7110 C   0  0  0  0  0  0  0  0  0  0  0
   12.8070  -22.1820    1.8750 C   0  0  0  0  0  0  0  0  0  0  0
   15.6060  -22.0710    1.4770 C   0  0  0  0  0  0  0  0  0  0  0
   14.9420  -23.3090    1.6370 C   0  0  0  0  0  0  0  0  0  0  0
   15.6750  -24.4630    1.5950 O   0  0  0  0  0  0  0  0  0  0  0
   17.0050  -24.4370    1.4720 C   0  0  0  0  0  0  0  0  0  0  0
   17.6820  -23.2860    1.3280 C   0  0  0  0  0  0  0  0  0  0  0
   16.9880  -22.1060    1.2970 C   0  0  0  0  0  0  0  0  0  0  0
   17.5980  -21.0590    1.1130 O   0  0  0  0  0  0  0  0  0  0  0
   15.3880  -19.6540    1.3750 O   0  0  0  0  0  0  0  0  0  0  0
   11.4730  -22.1600    2.0920 O   0  0  0  0  0  0  0  0  0  0  0
   19.0630  -23.3330    1.2230 C   0  0  0  0  0  0  0  0  0  0  0
   19.8450  -23.7120    2.3330 C   0  0  0  0  0  0  0  0  0  0  0
   21.2450  -23.7600    2.2300 C   0  0  0  0  0  0  0  0  0  0  0
   21.8750  -23.4300    1.0190 C   0  0  0  0  0  0  0  0  0  0  0
   21.1080  -23.0520   -0.1050 C   0  0  0  0  0  0  0  0  0  0  0
   19.7020  -23.0040    0.0100 C   0  0  0  0  0  0  0  0  0  0  0
   23.2250  -23.4820    0.9520 O   0  0  0  0  0  0  0  0  0  0  0
   21.7650  -22.6990   -1.3830 C   0  0  0  0  0  0  0  0  0  0  0
   22.4600  -23.8200   -1.9820 C   0  0  0  0  0  0  0  0  0  0  0
   23.3260  -23.6840   -2.9950 C   0  0  0  0  0  0  0  0  0  0  0
   23.9610  -24.8690   -3.5180 C   0  0  0  0  0  0  0  0  0  0  0
   23.6550  -22.3870   -3.5360 C   0  0  0  0  0  0  0  0  0  0  0
   19.0890  -31.4590    4.1840 C   0  0  0  0  0  0  0  0  0  0  0
   19.5970  -30.2860    3.6030 C   0  0  0  0  0  0  0  0  0  0  0
   18.8240  -29.1120    3.5800 C   0  0  0  0  0  0  0  0  0  0  0
   17.8020  -31.4620    4.7420 C   0  0  0  0  0  0  0  0  0  0  0
   17.0260  -30.2910    4.7230 C   0  0  0  0  0  0  0  0  0  0  0
   17.5250  -29.1000    4.1460 C   0  0  0  0  0  0  0  0  0  0  0
   16.6890  -27.9870    4.1810 C   0  0  0  0  0  0  0  0  0  0  0
   15.4190  -28.0650    4.6910 C   0  0  0  0  0  0  0  0  0  0  0
   14.9970  -29.2260    5.2250 C   0  0  0  0  0  0  0  0  0  0  0
   15.7750  -30.3140    5.2680 O   0  0  0  0  0  0  0  0  0  0  0
   19.8440  -32.5800    4.2030 O   0  0  0  0  0  0  0  0  0  0  0
   19.3740  -28.0190    3.0000 O   0  0  0  0  0  0  0  0  0  0  0
   17.1100  -26.9100    3.7760 O   0  0  0  0  0  0  0  0  0  0  0
   14.5510  -26.9830    4.6620 C   0  0  0  0  0  0  0  0  0  0  0
   14.0830  -26.4010    5.8560 C   0  0  0  0  0  0  0  0  0  0  0
   13.2250  -25.2910    5.8120 C   0  0  0  0  0  0  0  0  0  0  0
   12.8330  -24.7470    4.5770 C   0  0  0  0  0  0  0  0  0  0  0
   13.2900  -25.3150    3.3630 C   0  0  0  0  0  0  0  0  0  0  0
   14.1380  -26.4420    3.4280 C   0  0  0  0  0  0  0  0  0  0  0
   12.0190  -23.6680    4.5960 O   0  0  0  0  0  0  0  0  0  0  0
   12.9390  -24.7500    2.0270 C   0  0  1  0  0  0  0  0  0  0  0
   11.5040  -24.8530    1.7940 C   0  0  0  0  0  0  0  0  0  0  0
   10.9330  -25.3650    0.6930 C   0  0  0  0  0  0  0  0  0  0  0
    9.4920  -25.4020    0.6310 C   0  0  0  0  0  0  0  0  0  0  0
   11.7070  -25.8690   -0.4170 C   0  0  0  0  0  0  0  0  0  0  0
   12.9100  -20.0830    1.7430 H   0  0  0  0  0  0  0  0  0  0  0
   17.4860  -25.3060    1.4940 H   0  0  0  0  0  0  0  0  0  0  0
   16.3580  -19.6430    1.2370 H   0  0  0  0  0  0  0  0  0  0  0
   11.0690  -21.2660    2.0730 H   0  0  0  0  0  0  0  0  0  0  0
   19.3990  -23.9530    3.2190 H   0  0  0  0  0  0  0  0  0  0  0
   21.8040  -24.0360    3.0370 H   0  0  0  0  0  0  0  0  0  0  0
   19.1410  -22.7270   -0.7980 H   0  0  0  0  0  0  0  0  0  0  0
   23.5980  -23.2620    0.0730 H   0  0  0  0  0  0  0  0  0  0  0
   21.0280  -22.3370   -2.1030 H   0  0  0  0  0  0  0  0  0  0  0
   22.4710  -21.8900   -1.1880 H   0  0  0  0  0  0  0  0  0  0  0
   22.2630  -24.7370   -1.6560 H   0  0  0  0  0  0  0  0  0  0  0
   24.6340  -24.6240   -4.3400 H   0  0  0  0  0  0  0  0  0  0  0
   24.5370  -25.3540   -2.7290 H   0  0  0  0  0  0  0  0  0  0  0
   23.2020  -25.5620   -3.8830 H   0  0  0  0  0  0  0  0  0  0  0
   24.2990  -22.4810   -4.4110 H   0  0  0  0  0  0  0  0  0  0  0
   22.7430  -21.8670   -3.8330 H   0  0  0  0  0  0  0  0  0  0  0
   24.1760  -21.7970   -2.7810 H   0  0  0  0  0  0  0  0  0  0  0
   20.5320  -30.2870    3.1950 H   0  0  0  0  0  0  0  0  0  0  0
   17.4270  -32.3130    5.1620 H   0  0  0  0  0  0  0  0  0  0  0
   14.0810  -29.3030    5.5990 H   0  0  0  0  0  0  0  0  0  0  0
   19.4190  -33.3510    4.6330 H   0  0  0  0  0  0  0  0  0  0  0
   18.8080  -27.2190    3.0000 H   0  0  0  0  0  0  0  0  0  0  0
   14.3690  -26.7780    6.7610 H   0  0  0  0  0  0  0  0  0  0  0
   12.8910  -24.8730    6.6810 H   0  0  0  0  0  0  0  0  0  0  0
   14.4810  -26.8590    2.5610 H   0  0  0  0  0  0  0  0  0  0  0
   11.7740  -23.3230    3.7130 H   0  0  0  0  0  0  0  0  0  0  0
   13.4150  -25.3740    1.2690 H   0  0  0  0  0  0  0  0  0  0  0
   10.8930  -24.5200    2.5020 H   0  0  0  0  0  0  0  0  0  0  0
    9.1480  -25.8610   -0.2960 H   0  0  0  0  0  0  0  0  0  0  0
    9.1050  -25.9810    1.4710 H   0  0  0  0  0  0  0  0  0  0  0
    9.0990  -24.3860    0.6850 H   0  0  0  0  0  0  0  0  0  0  0
   11.0600  -26.1660   -1.2430 H   0  0  0  0  0  0  0  0  0  0  0
   12.3870  -25.0940   -0.7730 H   0  0  0  0  0  0  0  0  0  0  0
   12.2820  -26.7390   -0.0980 H   0  0  0  0  0  0  0  0  0  0  0
  1  4  1  0  0  0  0
  1  6  2  0  0  0  0
  1 46  1  0  0  0  0
  2  3  1  0  0  0  0
  2  5  2  0  0  0  0
  2 12  1  0  0  0  0
  3  4  2  0  0  0  0
  3 51  1  0  0  0  0
  4 13  1  0  0  0  0
  5  6  1  0  0  0  0
  5 10  1  0  0  0  0
  6  7  1  0  0  0  0
  7  8  1  0  0  0  0
  8  9  2  0  0  0  0
  8 52  1  0  0  0  0
  9 10  1  0  0  0  0
  9 14  1  0  0  0  0
 10 11  2  0  0  0  0
 12 53  1  0  0  0  0
 13 54  1  0  0  0  0
 14 15  2  0  0  0  0
 14 19  1  0  0  0  0
 15 16  1  0  0  0  0
 15 55  1  0  0  0  0
 16 17  2  0  0  0  0
 16 56  1  0  0  0  0
 17 18  1  0  0  0  0
 17 20  1  0  0  0  0
 18 19  2  0  0  0  0
 18 21  1  0  0  0  0
 19 57  1  0  0  0  0
 20 58  1  0  0  0  0
 21 22  1  0  0  0  0
 21 59  1  0  0  0  0
 21 60  1  0  0  0  0
 22 23  2  0  0  0  0
 22 61  1  0  0  0  0
 23 24  1  0  0  0  0
 23 25  1  0  0  0  0
 24 62  1  0  0  0  0
 24 63  1  0  0  0  0
 24 64  1  0  0  0  0
 25 65  1  0  0  0  0
 25 66  1  0  0  0  0
 25 67  1  0  0  0  0
 26 27  2  0  0  0  0
 26 29  1  0  0  0  0
 26 36  1  0  0  0  0
 27 28  1  0  0  0  0
 27 68  1  0  0  0  0
 28 31  2  0  0  0  0
 28 37  1  0  0  0  0
 29 30  2  0  0  0  0
 29 69  1  0  0  0  0
 30 31  1  0  0  0  0
 30 35  1  0  0  0  0
 31 32  1  0  0  0  0
 32 33  1  0  0  0  0
 32 38  2  0  0  0  0
 33 34  2  0  0  0  0
 33 39  1  0  0  0  0
 34 35  1  0  0  0  0
 34 70  1  0  0  0  0
 36 71  1  0  0  0  0
 37 72  1  0  0  0  0
 39 40  2  0  0  0  0
 39 44  1  0  0  0  0
 40 41  1  0  0  0  0
 40 73  1  0  0  0  0
 41 42  2  0  0  0  0
 41 74  1  0  0  0  0
 42 43  1  0  0  0  0
 42 45  1  0  0  0  0
 43 44  2  0  0  0  0
 43 46  1  0  0  0  0
 44 75  1  0  0  0  0
 45 76  1  0  0  0  0
 46 47  1  0  0  0  0
 46 77  1  0  0  0  0
 47 48  2  0  0  0  0
 47 78  1  0  0  0  0
 48 49  1  0  0  0  0
 48 50  1  0  0  0  0
 49 79  1  0  0  0  0
 49 80  1  0  0  0  0
 49 81  1  0  0  0  0
 50 82  1  0  0  0  0
 50 83  1  0  0  0  0
 50 84  1  0  0  0  0
M  END
> <From>
www.bindingDB.org

> <BindingDB Reactant_set_id>
50653132

> <Ligand InChI>
InChI=1S/C40H34O10/c1-19(2)5-6-23-12-21(7-9-29(23)42)28-18-50-40-35(32(45)16-33(46)37(40)39(28)48)26(11-20(3)4)25-13-22(8-10-30(25)43)27-17-49-34-15-24(41)14-31(44)36(34)38(27)47/h5,7-18,26,41-46H,6H2,1-4H3

> <Ligand InChI Key>
HCKWMBTVENMFOU-UHFFFAOYSA-N

> <BindingDB MonomerID>
50349974

> <BindingDB Ligand Name>
CHEMBL1812485

> <Target Name>
Enoyl-ACP reductase

> <Target Source Organism According to Curator or DataSource>
Plasmodium falciparum

> <Ki (nM)>


> <IC50 (nM)>
 7690

> <Kd (nM)>


> <EC50 (nM)>


> <kon (M-1-s-1)>


> <koff (s-1)>


> <pH>


> <Temp C>


> <Curation/DataSource>
ChEMBL

> <Article DOI>
10.1021/np100896w

> <BindingDB Entry DOI>
10.7270/Q2WH2QC7

> <PMID>
21619045

> <PubChem AID>


> <Patent Number>


> <Authors>
Bankeu, JJ; Khayala, R; Lenta, BN; Noungoue, DT; Ngouela, SA; Mustafa, SA; Asaad, K; Choudhary, MI; Prigge, ST; Hasanov, R; Nkengfack, AE; Tsamo, E; Ali, MS

> <Institution>
University of Yaounde

> <Link to Ligand in BindingDB>
http://www.bindingdb.org/bind/chemsearch/marvin/MolStructure.jsp?monomerid=50349974

> <Link to Ligand-Target Pair in BindingDB>
http://www.bindingdb.org/jsp/dbsearch/PrimarySearch_ki.jsp?energyterm=kJ/mole&tag=pol&polymerid=2820&target=Enoyl-ACP+reductase&column=ki&startPg=0&Increment=50&submit=Search

> <Link to Ligand-Target Pair in BindingDB>
http://www.bindingdb.org/jsp/dbsearch/PrimarySearch_ki.jsp?energyterm=kJ/mole&tag=r21&monomerid=50349974&enzyme=Enoyl-ACP+reductase&column=ki&startPg=0&Increment=50&submit=Search

> <Ligand HET ID in PDB>


> <PDB ID(s) for Ligand-Target Complex>


> <PubChem CID of Ligand>
53344647

> <PubChem SID of Ligand>
136356660

> <ChEBI ID of Ligand>
69743

> <ChEMBL ID of Ligand>
CHEMBL1812485

> <DrugBank ID of Ligand>


> <IUPHAR_GRAC ID of Ligand>


> <KEGG ID of Ligand>


> <ZINC ID of Ligand>
ZINC72110832

> <Number of Protein Chains in Target (bigger than 1 implies a multichain complex)>
1

> <BindingDB Target Chain Sequence>
MNKISQRLLFLFLHFYTTVCFIQNNTQKTFHNVLQNEQIRGKEKAFYRKEKRENIFIGNK
MKHVHNMNNTHNNNHYMEKEEQDASNINKIKEENKNEDICFIAGIGDTNGYGWGIAKELS
KRNVKIIFGIWPPVYNIFMKNYKNGKFDNDMIIDKDKKMNILDMLPFDASFDTANDIDEE
TKNNKRYNMLQNYTIEDVANLIHQKYGKINMLVHSLANAKEVQKDLLNTSRKGYLDALSK
SSYSLISLCKYFVNIMKPQSSIISLTYHASQKVVPGYGGGMSSAKAALESDTRVLAYHLG
RNYNIRINTISAGPLKSRAATAINKLNNTYENNTNQNKNRNRHDVHNIMNNSGEKEEKKI
SASQNYTFIDYAIEYSEKYAPLRQKLLSTDIGSVASFLLSRESRAITGQTIYVDNGLNIM
FLPDDIYRNENE

> <PDB ID(s) of Target Chain>
1NHG,1NHW,1NNU,1UH5,1V35,2FOI,2NQ8,3LSY,3LT0,3LT1,3LT2,3LT4

> <UniProt (SwissProt) Recommended Name of Target Chain>


> <UniProt (SwissProt) Entry Name of Target Chain>


> <UniProt (SwissProt) Primary ID of Target Chain>


> <UniProt (SwissProt) Secondary ID(s) of Target Chain>


> <UniProt (SwissProt) Alternative ID(s) of Target Chain>


> <UniProt (TrEMBL) Submitted Name of Target Chain>
Enoyl-ACP reductase

> <UniProt (TrEMBL) Entry Name of Target Chain>
Q9BJJ9_PLAFA

> <UniProt (TrEMBL) Primary ID of Target Chain>
Q9BJJ9

> <UniProt (TrEMBL) Secondary ID(s) of Target Chain>


> <UniProt (TrEMBL) Alternative ID(s) of Target Chain>


$$$$
BindingDB_51108786_3D

Vconf v2.1
 39 41  0  0  0  0  0  0  0  0999 V2000
    3.3960   -2.4390   -0.1050 C   0  0  2  0  0  0  0  0  0  0  0
    4.0600   -3.8050    0.1310 C   0  0  0  0  0  0  0  0  0  0  0
    5.3390   -3.4910    0.6630 N   0  0  0  0  0  0  0  0  0  0  0
    5.4970   -2.1250    1.0200 C   0  0  0  0  0  0  0  0  0  0  0
    4.0940   -1.5230    0.9090 C   0  0  0  0  0  0  0  0  0  0  0
    1.9170   -2.4540   -0.0040 C   0  0  0  0  0  0  0  0  0  0  0
    1.2730   -2.8510    1.1870 C   0  0  0  0  0  0  0  0  0  0  0
   -0.1300   -2.8660    1.2720 C   0  0  0  0  0  0  0  0  0  0  0
   -0.9040   -2.4850    0.1640 C   0  0  0  0  0  0  0  0  0  0  0
   -0.2750   -2.0890   -1.0280 C   0  0  0  0  0  0  0  0  0  0  0
    1.1280   -2.0740   -1.1100 C   0  0  0  0  0  0  0  0  0  0  0
    6.3410   -4.4000    0.8180 C   0  0  0  0  0  0  0  0  0  0  0
    7.4460   -4.0150    1.2640 O   0  0  0  0  0  0  0  0  0  0  0
    6.2000   -5.8270    0.4710 C   0  0  0  0  0  0  0  0  0  0  0
    5.2680   -6.5640    1.3650 C   0  0  0  0  0  0  0  0  0  0  0
    5.5810   -6.6100    2.7430 C   0  0  0  0  0  0  0  0  0  0  0
    4.7560   -7.2880    3.6540 C   0  0  0  0  0  0  0  0  0  0  0
    3.6040   -7.9430    3.1980 C   0  0  0  0  0  0  0  0  0  0  0
    3.2820   -7.9230    1.8320 C   0  0  0  0  0  0  0  0  0  0  0
    4.1070   -7.2450    0.9110 C   0  0  0  0  0  0  0  0  0  0  0
    3.6400   -7.3030   -0.7190 Cl  0  0  0  0  0  0  0  0  0  0  0
    3.6990   -2.1020   -1.0990 H   0  0  0  0  0  0  0  0  0  0  0
    3.5040   -4.4090    0.8490 H   0  0  0  0  0  0  0  0  0  0  0
    4.1450   -4.3330   -0.8200 H   0  0  0  0  0  0  0  0  0  0  0
    5.8650   -2.0210    2.0430 H   0  0  0  0  0  0  0  0  0  0  0
    6.1800   -1.6330    0.3250 H   0  0  0  0  0  0  0  0  0  0  0
    4.1310   -0.4920    0.5560 H   0  0  0  0  0  0  0  0  0  0  0
    3.6090   -1.5680    1.8850 H   0  0  0  0  0  0  0  0  0  0  0
    1.8260   -3.1330    1.9970 H   0  0  0  0  0  0  0  0  0  0  0
   -0.5860   -3.1540    2.1380 H   0  0  0  0  0  0  0  0  0  0  0
   -1.9230   -2.4970    0.2240 H   0  0  0  0  0  0  0  0  0  0  0
   -0.8360   -1.8130   -1.8340 H   0  0  0  0  0  0  0  0  0  0  0
    1.5750   -1.7850   -1.9810 H   0  0  0  0  0  0  0  0  0  0  0
    5.9040   -5.8860   -0.5740 H   0  0  0  0  0  0  0  0  0  0  0
    7.1810   -6.3010    0.5520 H   0  0  0  0  0  0  0  0  0  0  0
    6.4190   -6.1400    3.0900 H   0  0  0  0  0  0  0  0  0  0  0
    4.9950   -7.3050    4.6460 H   0  0  0  0  0  0  0  0  0  0  0
    3.0020   -8.4370    3.8570 H   0  0  0  0  0  0  0  0  0  0  0
    2.4420   -8.4110    1.5170 H   0  0  0  0  0  0  0  0  0  0  0
  1  2  1  0  0  0  0
  1  5  1  0  0  0  0
  1  6  1  0  0  0  0
  1 22  1  0  0  0  0
  2  3  1  0  0  0  0
  2 23  1  0  0  0  0
  2 24  1  0  0  0  0
  3  4  1  0  0  0  0
  3 12  1  0  0  0  0
  4  5  1  0  0  0  0
  4 25  1  0  0  0  0
  4 26  1  0  0  0  0
  5 27  1  0  0  0  0
  5 28  1  0  0  0  0
  6  7  2  0  0  0  0
  6 11  1  0  0  0  0
  7  8  1  0  0  0  0
  7 29  1  0  0  0  0
  8  9  2  0  0  0  0
  8 30  1  0  0  0  0
  9 10  1  0  0  0  0
  9 31  1  0  0  0  0
 10 11  2  0  0  0  0
 10 32  1  0  0  0  0
 11 33  1  0  0  0  0
 12 13  2  0  0  0  0
 12 14  1  0  0  0  0
 14 15  1  0  0  0  0
 14 34  1  0  0  0  0
 14 35  1  0  0  0  0
 15 16  2  0  0  0  0
 15 20  1  0  0  0  0
 16 17  1  0  0  0  0
 16 36  1  0  0  0  0
 17 18  2  0  0  0  0
 17 37  1  0  0  0  0
 18 19  1  0  0  0  0
 18 38  1  0  0  0  0
 19 20  2  0  0  0  0
 19 39  1  0  0  0  0
 20 21  1  0  0  0  0
M  END
> <From>
www.bindingDB.org

> <BindingDB Reactant_set_id>
51108786

> <Ligand InChI>
InChI=1S/C18H18ClNO/c19-17-9-5-4-8-15(17)12-18(21)20-11-10-16(13-20)14-6-2-1-3-7-14/h1-9,16H,10-13H2

> <Ligand InChI Key>
FHGKKJDHEDLAIJ-UHFFFAOYSA-N

> <BindingDB MonomerID>
50452497

> <BindingDB Ligand Name>
CHEMBL4205565

> <Target Name>
Enoyl-[acyl-carrier-protein] reductase [NADPH] FabI [9-251]

> <Target Source Organism According to Curator or DataSource>
Staphylococcus aureus

> <Ki (nM)>


> <IC50 (nM)>
 10700

> <Kd (nM)>


> <EC50 (nM)>


> <kon (M-1-s-1)>


> <koff (s-1)>


> <pH>


> <Temp C>


> <Curation/DataSource>
ChEMBL

> <Article DOI>
10.1016/j.bmc.2017.11.018

> <BindingDB Entry DOI>
10.7270/Q2QF8WF7

> <PMID>
29162308

> <PubChem AID>


> <Patent Number>


> <Authors>
Kwon, J; Mistry, T; Ren, J; Johnson, ME; Mehboob, S

> <Institution>
Novalex Therapeutics

> <Link to Ligand in BindingDB>
http://www.bindingdb.org/bind/chemsearch/marvin/MolStructure.jsp?monomerid=50452497

> <Link to Ligand-Target Pair in BindingDB>
http://www.bindingdb.org/jsp/dbsearch/PrimarySearch_ki.jsp?energyterm=kJ/mole&tag=pol&polymerid=50004708&target=Enoyl-%5Bacyl-carrier-protein%5D+reductase+%5BNADPH%5D+FabI+%5B9-251%5D&column=ki&startPg=0&Increment=50&submit=Search

> <Link to Ligand-Target Pair in BindingDB>
http://www.bindingdb.org/jsp/dbsearch/PrimarySearch_ki.jsp?energyterm=kJ/mole&tag=r21&monomerid=50452497&enzyme=Enoyl-%5Bacyl-carrier-protein%5D+reductase+%5BNADPH%5D+FabI+%5B9-251%5D&column=ki&startPg=0&Increment=50&submit=Search

> <Ligand HET ID in PDB>


> <PDB ID(s) for Ligand-Target Complex>


> <PubChem CID of Ligand>
45555616

> <PubChem SID of Ligand>
433921353

> <ChEBI ID of Ligand>


> <ChEMBL ID of Ligand>


> <DrugBank ID of Ligand>


> <IUPHAR_GRAC ID of Ligand>


> <KEGG ID of Ligand>


> <ZINC ID of Ligand>


> <Number of Protein Chains in Target (bigger than 1 implies a multichain complex)>
1

> <BindingDB Target Chain Sequence>
YVIMGIANKRSIAFGVAKVLDQLGAKLVFTYRKERSRKELEKLLEQLNQPEAHLYQIDVQSDEEVINGFEQIGKDVGNIDGVYHSIAFANMEDLRGRFSETSREGFLLAQDISSYSLTIVAHEAKKLMPEGGSIVATTYLGGEFAVQNYNVMGVAKASLEANVKYLALDLGPDNIRVNAISAGPIRTLSAKGVGGFNTILKEIEERAPLKRNVDQVEVGKTAAYLLSDLSSGVTGENIHVDSG

> <PDB ID(s) of Target Chain>
3GNS,3GNT,3GR6,4ALI,4ALJ,4ALK,4ALL,4ALM,4ALN,4BNF,4BNG,4BNH,4BNI,4BNJ,4BNK,4BNL,4BNM,4BNN,4CUZ,4CV0,4CV1,4D41,4D42,4D43,4D44,4D45,4FS3,4NZ9,6TBB,6TBC,6YUR

> <UniProt (SwissProt) Recommended Name of Target Chain>
Enoyl-[acyl-carrier-protein] reductase [NADPH] FabI

> <UniProt (SwissProt) Entry Name of Target Chain>
FABI_STAAR

> <UniProt (SwissProt) Primary ID of Target Chain>
Q6GI75

> <UniProt (SwissProt) Secondary ID(s) of Target Chain>


> <UniProt (SwissProt) Alternative ID(s) of Target Chain>


> <UniProt (TrEMBL) Submitted Name of Target Chain>


> <UniProt (TrEMBL) Entry Name of Target Chain>


> <UniProt (TrEMBL) Primary ID of Target Chain>


> <UniProt (TrEMBL) Secondary ID(s) of Target Chain>


> <UniProt (TrEMBL) Alternative ID(s) of Target Chain>


$$$$
BindingDB_50452508_mol_1

Vconf v2.0 Academic SN VC001-00000579
 32 33  0  0  0  0  0  0  0  0999 V2000
    3.9860   -2.3990    0.5690 C   0  0  0  0  0  0  0  0  0  0  0
    3.8990   -3.8060    0.5550 C   0  0  0  0  0  0  0  0  0  0  0
    2.6810   -4.3950    0.4970 N   0  0  0  0  0  0  0  0  0  0  0
    2.7710   -1.6840    0.5250 C   0  0  0  0  0  0  0  0  0  0  0
    1.5890   -2.3440    0.4710 N   0  0  0  0  0  0  0  0  0  0  0
    1.5320   -3.6950    0.4550 C   0  0  0  0  0  0  0  0  0  0  0
    5.1280   -1.7730    0.6200 C   0  0  0  0  0  0  0  0  0  0  0
    6.1350   -1.2220    0.6650 N   0  0  0  0  0  0  0  0  0  0  0
    2.7340   -0.3290    0.5380 O   0  0  0  0  0  0  0  0  0  0  0
    4.9840   -4.6140    0.5940 N   0  0  0  0  0  0  0  0  0  0  0
    8.1500   -5.5610   -0.2410 N   0  0  0  0  0  0  0  0  0  0  0
    7.0930   -6.3780   -0.4700 C   0  0  0  0  0  0  0  0  0  0  0
    4.8550   -6.0310    0.5550 C   0  0  0  0  0  0  0  0  0  0  0
    6.2120   -6.7410    0.6460 C   0  0  0  0  0  0  0  0  0  0  0
    0.2670   -4.4200    0.3960 C   0  0  0  0  0  0  0  0  0  0  0
    8.9940   -5.1500   -1.2220 C   0  0  0  0  0  0  0  0  0  0  0
    6.8490   -6.8390   -1.7760 C   0  0  0  0  0  0  0  0  0  0  0
    8.7850   -5.5770   -2.5420 C   0  0  0  0  0  0  0  0  0  0  0
    7.7040   -6.4290   -2.8130 C   0  0  0  0  0  0  0  0  0  0  0
    1.8270    0.0480    0.5060 H   0  0  0  0  0  0  0  0  0  0  0
    5.8700   -4.2190    0.6410 H   0  0  0  0  0  0  0  0  0  0  0
    4.2480   -6.3570    1.4000 H   0  0  0  0  0  0  0  0  0  0  0
    4.3490   -6.3220   -0.3680 H   0  0  0  0  0  0  0  0  0  0  0
    6.6810   -6.4670    1.5880 H   0  0  0  0  0  0  0  0  0  0  0
    6.0520   -7.8190    0.6480 H   0  0  0  0  0  0  0  0  0  0  0
   -0.5730   -3.7240    0.3510 H   0  0  0  0  0  0  0  0  0  0  0
    0.2600   -5.0540   -0.4950 H   0  0  0  0  0  0  0  0  0  0  0
    0.1720   -5.0450    1.2890 H   0  0  0  0  0  0  0  0  0  0  0
    9.7740   -4.5330   -0.9990 H   0  0  0  0  0  0  0  0  0  0  0
    6.0650   -7.4620   -1.9730 H   0  0  0  0  0  0  0  0  0  0  0
    9.4070   -5.2700   -3.2910 H   0  0  0  0  0  0  0  0  0  0  0
    7.5410   -6.7570   -3.7660 H   0  0  0  0  0  0  0  0  0  0  0
  1  2  1  0  0  0  0
  1  4  2  0  0  0  0
  1  7  1  0  0  0  0
  2  3  2  0  0  0  0
  2 10  1  0  0  0  0
  3  6  1  0  0  0  0
  4  5  1  0  0  0  0
  4  9  1  0  0  0  0
  5  6  2  0  0  0  0
  6 15  1  0  0  0  0
  7  8  3  0  0  0  0
  9 20  1  0  0  0  0
 10 13  1  0  0  0  0
 10 21  1  0  0  0  0
 11 12  1  0  0  0  0
 11 16  2  0  0  0  0
 12 14  1  0  0  0  0
 12 17  2  0  0  0  0
 13 14  1  0  0  0  0
 13 22  1  0  0  0  0
 13 23  1  0  0  0  0
 14 24  1  0  0  0  0
 14 25  1  0  0  0  0
 15 26  1  0  0  0  0
 15 27  1  0  0  0  0
 15 28  1  0  0  0  0
 16 18  1  0  0  0  0
 16 29  1  0  0  0  0
 17 19  1  0  0  0  0
 17 30  1  0  0  0  0
 18 19  2  0  0  0  0
 18 31  1  0  0  0  0
 19 32  1  0  0  0  0
M  END
> <From>
www.bindingDB.org

> <BindingDB Reactant_set_id>
51108783

> <Ligand InChI>
InChI=1S/C19H20ClNO2/c1-23-17-8-6-14(7-9-17)16-10-11-21(13-16)19(22)12-15-4-2-3-5-18(15)20/h2-9,16H,10-13H2,1H3

> <Ligand InChI Key>
UCTRIAJPESVHOK-UHFFFAOYSA-N

> <BindingDB MonomerID>
50452508

> <BindingDB Ligand Name>
CHEMBL4209393

> <Target Name>
Enoyl-[acyl-carrier-protein] reductase [NADPH] FabI [9-251]

> <Target Source Organism According to Curator or DataSource>
Staphylococcus aureus

> <Ki (nM)>


> <IC50 (nM)>
 12500

> <Kd (nM)>


> <EC50 (nM)>


> <kon (M-1-s-1)>


> <koff (s-1)>


> <pH>


> <Temp C>


> <Curation/DataSource>
ChEMBL

> <Article DOI>
10.1016/j.bmc.2017.11.018

> <BindingDB Entry DOI>
10.7270/Q2QF8WF7

> <PMID>
29162308

> <PubChem AID>


> <Patent Number>


> <Authors>
Kwon, J; Mistry, T; Ren, J; Johnson, ME; Mehboob, S

> <Institution>
Novalex Therapeutics

> <Link to Ligand in BindingDB>
http://www.bindingdb.org/bind/chemsearch/marvin/MolStructure.jsp?monomerid=50452508

> <Link to Ligand-Target Pair in BindingDB>
http://www.bindingdb.org/jsp/dbsearch/PrimarySearch_ki.jsp?energyterm=kJ/mole&tag=pol&polymerid=50004708&target=Enoyl-%5Bacyl-carrier-protein%5D+reductase+%5BNADPH%5D+FabI+%5B9-251%5D&column=ki&startPg=0&Increment=50&submit=Search

> <Link to Ligand-Target Pair in BindingDB>
http://www.bindingdb.org/jsp/dbsearch/PrimarySearch_ki.jsp?energyterm=kJ/mole&tag=r21&monomerid=50452508&enzyme=Enoyl-%5Bacyl-carrier-protein%5D+reductase+%5BNADPH%5D+FabI+%5B9-251%5D&column=ki&startPg=0&Increment=50&submit=Search

> <Ligand HET ID in PDB>


> <PDB ID(s) for Ligand-Target Complex>


> <PubChem CID of Ligand>
45555393

> <PubChem SID of Ligand>
433921364

> <ChEBI ID of Ligand>


> <ChEMBL ID of Ligand>


> <DrugBank ID of Ligand>


> <IUPHAR_GRAC ID of Ligand>


> <KEGG ID of Ligand>


> <ZINC ID of Ligand>


> <Number of Protein Chains in Target (bigger than 1 implies a multichain complex)>
1

> <BindingDB Target Chain Sequence>
YVIMGIANKRSIAFGVAKVLDQLGAKLVFTYRKERSRKELEKLLEQLNQPEAHLYQIDVQSDEEVINGFEQIGKDVGNIDGVYHSIAFANMEDLRGRFSETSREGFLLAQDISSYSLTIVAHEAKKLMPEGGSIVATTYLGGEFAVQNYNVMGVAKASLEANVKYLALDLGPDNIRVNAISAGPIRTLSAKGVGGFNTILKEIEERAPLKRNVDQVEVGKTAAYLLSDLSSGVTGENIHVDSG

> <PDB ID(s) of Target Chain>
3GNS,3GNT,3GR6,4ALI,4ALJ,4ALK,4ALL,4ALM,4ALN,4BNF,4BNG,4BNH,4BNI,4BNJ,4BNK,4BNL,4BNM,4BNN,4CUZ,4CV0,4CV1,4D41,4D42,4D43,4D44,4D45,4FS3,4NZ9,6TBB,6TBC,6YUR

> <UniProt (SwissProt) Recommended Name of Target Chain>
Enoyl-[acyl-carrier-protein] reductase [NADPH] FabI

> <UniProt (SwissProt) Entry Name of Target Chain>
FABI_STAAR

> <UniProt (SwissProt) Primary ID of Target Chain>
Q6GI75

> <UniProt (SwissProt) Secondary ID(s) of Target Chain>


> <UniProt (SwissProt) Alternative ID(s) of Target Chain>


> <UniProt (TrEMBL) Submitted Name of Target Chain>


> <UniProt (TrEMBL) Entry Name of Target Chain>


> <UniProt (TrEMBL) Primary ID of Target Chain>


> <UniProt (TrEMBL) Secondary ID(s) of Target Chain>


> <UniProt (TrEMBL) Alternative ID(s) of Target Chain>


$$$$
BindingDB_50338301_mol_1

Vconf v2.0 Academic SN VC001-00000579
 54 58  0  0  0  0  0  0  0  0999 V2000
   16.9500   -2.6590    0.5110 C   0  0  0  0  0  0  0  0  0  0  0
   17.0250   -3.9300   -0.0980 C   0  0  0  0  0  0  0  0  0  0  0
   18.2220   -4.6650   -0.0800 C   0  0  0  0  0  0  0  0  0  0  0
   19.3630   -4.1350    0.5440 C   0  0  0  0  0  0  0  0  0  0  0
   19.3070   -2.8660    1.1460 C   0  0  0  0  0  0  0  0  0  0  0
   18.1080   -2.1320    1.1270 C   0  0  0  0  0  0  0  0  0  0  0
   20.4100   -2.3540    1.7400 O   0  0  0  0  0  0  0  0  0  0  0
   20.5140   -4.8430    0.5610 O   0  0  0  0  0  0  0  0  0  0  0
   15.7540   -1.9630    0.4640 C   0  0  0  0  0  0  0  0  0  0  0
   15.3340   -1.1220    1.4210 C   0  0  0  0  0  0  0  0  0  0  0
   14.1560   -0.4660    1.3510 C   0  0  0  0  0  0  0  0  0  0  0
   13.3630   -0.6130    0.2670 O   0  0  0  0  0  0  0  0  0  0  0
   12.1870    0.0290    0.1860 C   0  0  0  0  0  0  0  0  0  0  0
   13.7640    0.3330    2.3580 C   0  0  0  0  0  0  0  0  0  0  0
   12.5850    0.9680    2.2600 C   0  0  0  0  0  0  0  0  0  0  0
   11.8040    0.8330    1.1950 C   0  0  0  0  0  0  0  0  0  0  0
   10.5930    1.5870    1.3200 C   0  0  1  0  0  0  0  0  0  0  0
   10.8060    2.2520    2.7090 C   0  0  2  0  0  0  0  0  0  0  0
   12.0630    1.7530    3.1840 O   0  0  0  0  0  0  0  0  0  0  0
   11.4730   -0.1390   -0.7890 O   0  0  0  0  0  0  0  0  0  0  0
   10.4560    2.5630    0.2610 C   0  0  0  0  0  0  0  0  0  0  0
   11.4250    3.4780    0.0970 O   0  0  0  0  0  0  0  0  0  0  0
   11.3200    4.3930   -0.8760 C   0  0  0  0  0  0  0  0  0  0  0
   10.2530    4.4040   -1.6930 C   0  0  0  0  0  0  0  0  0  0  0
    9.2920    3.4900   -1.5240 C   0  0  0  0  0  0  0  0  0  0  0
    9.3870    2.5670   -0.5480 C   0  0  0  0  0  0  0  0  0  0  0
   12.2040    5.2240   -1.0100 O   0  0  0  0  0  0  0  0  0  0  0
    8.2410    3.4980   -2.3250 O   0  0  0  0  0  0  0  0  0  0  0
    9.7320    1.9530    3.6820 C   0  0  0  0  0  0  0  0  0  0  0
    8.9380    2.9900    4.2140 C   0  0  0  0  0  0  0  0  0  0  0
    7.9220    2.7050    5.1440 C   0  0  0  0  0  0  0  0  0  0  0
    7.6910    1.3790    5.5500 C   0  0  0  0  0  0  0  0  0  0  0
    8.4770    0.3390    5.0240 C   0  0  0  0  0  0  0  0  0  0  0
    9.4920    0.6260    4.0960 C   0  0  0  0  0  0  0  0  0  0  0
    7.1710    3.7080    5.6470 O   0  0  0  0  0  0  0  0  0  0  0
    6.7150    1.1080    6.4470 O   0  0  0  0  0  0  0  0  0  0  0
   16.2040   -4.3290   -0.5570 H   0  0  0  0  0  0  0  0  0  0  0
   18.2630   -5.5850   -0.5210 H   0  0  0  0  0  0  0  0  0  0  0
   18.0860   -1.2080    1.5600 H   0  0  0  0  0  0  0  0  0  0  0
   20.2870   -1.4630    2.1280 H   0  0  0  0  0  0  0  0  0  0  0
   21.2490   -4.3840    1.0200 H   0  0  0  0  0  0  0  0  0  0  0
   15.1640   -2.1160   -0.3200 H   0  0  0  0  0  0  0  0  0  0  0
   15.9040   -0.9800    2.2220 H   0  0  0  0  0  0  0  0  0  0  0
   14.3250    0.4590    3.1660 H   0  0  0  0  0  0  0  0  0  0  0
    9.7480    0.8950    1.3270 H   0  0  0  0  0  0  0  0  0  0  0
   10.9110    3.3340    2.5910 H   0  0  0  0  0  0  0  0  0  0  0
   10.1790    5.0820   -2.4120 H   0  0  0  0  0  0  0  0  0  0  0
    8.6690    1.8930   -0.4330 H   0  0  0  0  0  0  0  0  0  0  0
    7.5800    2.7980   -2.1420 H   0  0  0  0  0  0  0  0  0  0  0
    9.0990    3.9560    3.9270 H   0  0  0  0  0  0  0  0  0  0  0
    8.3140   -0.6250    5.3170 H   0  0  0  0  0  0  0  0  0  0  0
   10.0600   -0.1350    3.7220 H   0  0  0  0  0  0  0  0  0  0  0
    6.4960    3.4070    6.2930 H   0  0  0  0  0  0  0  0  0  0  0
    6.6280    0.1600    6.6810 H   0  0  0  0  0  0  0  0  0  0  0
  1  2  1  0  0  0  0
  1  6  2  0  0  0  0
  1  9  1  0  0  0  0
  2  3  2  0  0  0  0
  2 37  1  0  0  0  0
  3  4  1  0  0  0  0
  3 38  1  0  0  0  0
  4  5  2  0  0  0  0
  4  8  1  0  0  0  0
  5  6  1  0  0  0  0
  5  7  1  0  0  0  0
  6 39  1  0  0  0  0
  7 40  1  0  0  0  0
  8 41  1  0  0  0  0
  9 10  2  0  0  0  0
  9 42  1  0  0  0  0
 10 11  1  0  0  0  0
 10 43  1  0  0  0  0
 11 12  1  0  0  0  0
 11 14  2  0  0  0  0
 12 13  1  0  0  0  0
 13 16  1  0  0  0  0
 13 20  2  0  0  0  0
 14 15  1  0  0  0  0
 14 44  1  0  0  0  0
 15 16  2  0  0  0  0
 15 19  1  0  0  0  0
 16 17  1  0  0  0  0
 17 18  1  0  0  0  0
 17 21  1  1  0  0  0
 17 45  1  0  0  0  0
 18 19  1  0  0  0  0
 18 29  1  6  0  0  0
 18 46  1  0  0  0  0
 21 22  1  0  0  0  0
 21 26  2  0  0  0  0
 22 23  1  0  0  0  0
 23 24  1  0  0  0  0
 23 27  2  0  0  0  0
 24 25  2  0  0  0  0
 24 47  1  0  0  0  0
 25 26  1  0  0  0  0
 25 28  1  0  0  0  0
 26 48  1  0  0  0  0
 28 49  1  0  0  0  0
 29 30  2  0  0  0  0
 29 34  1  0  0  0  0
 30 31  1  0  0  0  0
 30 50  1  0  0  0  0
 31 32  2  0  0  0  0
 31 35  1  0  0  0  0
 32 33  1  0  0  0  0
 32 36  1  0  0  0  0
 33 34  2  0  0  0  0
 33 51  1  0  0  0  0
 34 52  1  0  0  0  0
 35 53  1  0  0  0  0
 36 54  1  0  0  0  0
M  END
> <From>
www.bindingDB.org

> <BindingDB Reactant_set_id>
50626400

> <Ligand InChI>
InChI=1S/C26H18O10/c27-14-9-20(35-22(32)10-14)23-24-21(36-25(23)13-3-6-17(29)19(31)8-13)11-15(34-26(24)33)4-1-12-2-5-16(28)18(30)7-12/h1-11,23,25,27-31H/b4-1+/t23-,25+/m0/s1

> <Ligand InChI Key>
CGMQDMKDINCGOB-NJYVMNEESA-N

> <BindingDB MonomerID>
50338301

> <BindingDB Ligand Name>
CHEMBL1682260::hypholomine B

> <Target Name>
Enoyl-[acyl-carrier-protein] reductase [NADPH] FabI [9-251]

> <Target Source Organism According to Curator or DataSource>
Staphylococcus aureus

> <Ki (nM)>


> <IC50 (nM)>
 15300

> <Kd (nM)>


> <EC50 (nM)>


> <kon (M-1-s-1)>


> <koff (s-1)>


> <pH>


> <Temp C>


> <Curation/DataSource>
ChEMBL

> <Article DOI>
10.1016/j.bmcl.2011.01.080

> <BindingDB Entry DOI>
10.7270/Q29W0FRM

> <PMID>
21316961

> <PubChem AID>


> <Patent Number>


> <Authors>
Cho, JY; Kwon, YJ; Sohn, MJ; Seok, SJ; Kim, WG

> <Institution>
Korea Research Institute of Bioscience and Biotechnology

> <Link to Ligand in BindingDB>
http://www.bindingdb.org/bind/chemsearch/marvin/MolStructure.jsp?monomerid=50338301

> <Link to Ligand-Target Pair in BindingDB>
http://www.bindingdb.org/jsp/dbsearch/PrimarySearch_ki.jsp?energyterm=kJ/mole&tag=pol&polymerid=50004708&target=Enoyl-%5Bacyl-carrier-protein%5D+reductase+%5BNADPH%5D+FabI+%5B9-251%5D&column=ki&startPg=0&Increment=50&submit=Search

> <Link to Ligand-Target Pair in BindingDB>
http://www.bindingdb.org/jsp/dbsearch/PrimarySearch_ki.jsp?energyterm=kJ/mole&tag=r21&monomerid=50338301&enzyme=Enoyl-%5Bacyl-carrier-protein%5D+reductase+%5BNADPH%5D+FabI+%5B9-251%5D&column=ki&startPg=0&Increment=50&submit=Search

> <Ligand HET ID in PDB>


> <PDB ID(s) for Ligand-Target Complex>


> <PubChem CID of Ligand>
54730031

> <PubChem SID of Ligand>
125088403

> <ChEBI ID of Ligand>


> <ChEMBL ID of Ligand>
CHEMBL1682260

> <DrugBank ID of Ligand>


> <IUPHAR_GRAC ID of Ligand>


> <KEGG ID of Ligand>


> <ZINC ID of Ligand>
ZINC64361685

> <Number of Protein Chains in Target (bigger than 1 implies a multichain complex)>
1

> <BindingDB Target Chain Sequence>
YVIMGIANKRSIAFGVAKVLDQLGAKLVFTYRKERSRKELEKLLEQLNQPEAHLYQIDVQSDEEVINGFEQIGKDVGNIDGVYHSIAFANMEDLRGRFSETSREGFLLAQDISSYSLTIVAHEAKKLMPEGGSIVATTYLGGEFAVQNYNVMGVAKASLEANVKYLALDLGPDNIRVNAISAGPIRTLSAKGVGGFNTILKEIEERAPLKRNVDQVEVGKTAAYLLSDLSSGVTGENIHVDSG

> <PDB ID(s) of Target Chain>
3GNS,3GNT,3GR6,4ALI,4ALJ,4ALK,4ALL,4ALM,4ALN,4BNF,4BNG,4BNH,4BNI,4BNJ,4BNK,4BNL,4BNM,4BNN,4CUZ,4CV0,4CV1,4D41,4D42,4D43,4D44,4D45,4FS3,4NZ9,6TBB,6TBC,6YUR

> <UniProt (SwissProt) Recommended Name of Target Chain>
Enoyl-[acyl-carrier-protein] reductase [NADPH] FabI

> <UniProt (SwissProt) Entry Name of Target Chain>
FABI_STAAR

> <UniProt (SwissProt) Primary ID of Target Chain>
Q6GI75

> <UniProt (SwissProt) Secondary ID(s) of Target Chain>


> <UniProt (SwissProt) Alternative ID(s) of Target Chain>


> <UniProt (TrEMBL) Submitted Name of Target Chain>


> <UniProt (TrEMBL) Entry Name of Target Chain>


> <UniProt (TrEMBL) Primary ID of Target Chain>


> <UniProt (TrEMBL) Secondary ID(s) of Target Chain>


> <UniProt (TrEMBL) Alternative ID(s) of Target Chain>


$$$$
BindingDB_51108804_3D

Vconf v2.1
 38 40  0  0  0  0  0  0  0  0999 V2000
   33.9000   -6.7790    0.4640 C   0  0  2  0  0  0  0  0  0  0  0
   34.2700   -7.7800   -0.6420 C   0  0  0  0  0  0  0  0  0  0  0
   35.3920   -8.4840   -0.1280 N   0  0  0  0  0  0  0  0  0  0  0
   35.6330   -8.2470    1.2510 C   0  0  0  0  0  0  0  0  0  0  0
   34.3950   -7.4860    1.7320 C   0  0  0  0  0  0  0  0  0  0  0
   32.4710   -6.4080    0.4650 C   0  0  0  0  0  0  0  0  0  0  0
   31.6840   -6.6630    1.5440 N   0  0  0  0  0  0  0  0  0  0  0
   30.3670   -6.3440    1.5980 C   0  0  0  0  0  0  0  0  0  0  0
   29.7600   -5.7190    0.4980 C   0  0  0  0  0  0  0  0  0  0  0
   30.5390   -5.4360   -0.6350 C   0  0  0  0  0  0  0  0  0  0  0
   31.9010   -5.7770   -0.6570 C   0  0  0  0  0  0  0  0  0  0  0
   36.1780   -9.3100   -0.8700 C   0  0  0  0  0  0  0  0  0  0  0
   37.1640   -9.8590   -0.3290 O   0  0  0  0  0  0  0  0  0  0  0
   35.9360   -9.5920   -2.2990 C   0  0  0  0  0  0  0  0  0  0  0
   34.6980  -10.3780   -2.5430 C   0  0  0  0  0  0  0  0  0  0  0
   34.6090  -11.6600   -1.9540 C   0  0  0  0  0  0  0  0  0  0  0
   33.4730  -12.4650   -2.1330 C   0  0  0  0  0  0  0  0  0  0  0
   32.4070  -12.0030   -2.9180 C   0  0  0  0  0  0  0  0  0  0  0
   32.4820  -10.7410   -3.5260 C   0  0  0  0  0  0  0  0  0  0  0
   33.6190   -9.9260   -3.3510 C   0  0  0  0  0  0  0  0  0  0  0
   33.6160   -8.4280   -4.1470 Cl  0  0  0  0  0  0  0  0  0  0  0
   34.5000   -5.8770    0.3280 H   0  0  0  0  0  0  0  0  0  0  0
   33.4530   -8.4780   -0.8310 H   0  0  0  0  0  0  0  0  0  0  0
   34.5250   -7.2360   -1.5520 H   0  0  0  0  0  0  0  0  0  0  0
   35.7310   -9.1820    1.8060 H   0  0  0  0  0  0  0  0  0  0  0
   36.5310   -7.6390    1.3760 H   0  0  0  0  0  0  0  0  0  0  0
   34.6440   -6.7730    2.5190 H   0  0  0  0  0  0  0  0  0  0  0
   33.6550   -8.2040    2.0900 H   0  0  0  0  0  0  0  0  0  0  0
   29.8220   -6.5590    2.4330 H   0  0  0  0  0  0  0  0  0  0  0
   28.7700   -5.4750    0.5220 H   0  0  0  0  0  0  0  0  0  0  0
   30.1150   -4.9820   -1.4440 H   0  0  0  0  0  0  0  0  0  0  0
   32.4680   -5.5730   -1.4810 H   0  0  0  0  0  0  0  0  0  0  0
   35.9330   -8.6400   -2.8270 H   0  0  0  0  0  0  0  0  0  0  0
   36.7770  -10.1700   -2.6850 H   0  0  0  0  0  0  0  0  0  0  0
   35.3780  -12.0120   -1.3820 H   0  0  0  0  0  0  0  0  0  0  0
   33.4240  -13.3850   -1.6940 H   0  0  0  0  0  0  0  0  0  0  0
   31.5810  -12.5860   -3.0500 H   0  0  0  0  0  0  0  0  0  0  0
   31.6990  -10.4240   -4.1000 H   0  0  0  0  0  0  0  0  0  0  0
  1  2  1  0  0  0  0
  1  5  1  0  0  0  0
  1  6  1  0  0  0  0
  1 22  1  0  0  0  0
  2  3  1  0  0  0  0
  2 23  1  0  0  0  0
  2 24  1  0  0  0  0
  3  4  1  0  0  0  0
  3 12  1  0  0  0  0
  4  5  1  0  0  0  0
  4 25  1  0  0  0  0
  4 26  1  0  0  0  0
  5 27  1  0  0  0  0
  5 28  1  0  0  0  0
  6  7  2  0  0  0  0
  6 11  1  0  0  0  0
  7  8  1  0  0  0  0
  8  9  2  0  0  0  0
  8 29  1  0  0  0  0
  9 10  1  0  0  0  0
  9 30  1  0  0  0  0
 10 11  2  0  0  0  0
 10 31  1  0  0  0  0
 11 32  1  0  0  0  0
 12 13  2  0  0  0  0
 12 14  1  0  0  0  0
 14 15  1  0  0  0  0
 14 33  1  0  0  0  0
 14 34  1  0  0  0  0
 15 16  2  0  0  0  0
 15 20  1  0  0  0  0
 16 17  1  0  0  0  0
 16 35  1  0  0  0  0
 17 18  2  0  0  0  0
 17 36  1  0  0  0  0
 18 19  1  0  0  0  0
 18 37  1  0  0  0  0
 19 20  2  0  0  0  0
 19 38  1  0  0  0  0
 20 21  1  0  0  0  0
M  END
> <From>
www.bindingDB.org

> <BindingDB Reactant_set_id>
51108804

> <Ligand InChI>
InChI=1S/C17H17ClN2O/c18-15-6-2-1-5-13(15)11-17(21)20-10-8-14(12-20)16-7-3-4-9-19-16/h1-7,9,14H,8,10-12H2

> <Ligand InChI Key>
MUHWGUJZZRQHPQ-UHFFFAOYSA-N

> <BindingDB MonomerID>
50452481

> <BindingDB Ligand Name>
CHEMBL4216697

> <Target Name>
Enoyl-[acyl-carrier-protein] reductase [NADPH] FabI [9-251]

> <Target Source Organism According to Curator or DataSource>
Staphylococcus aureus

> <Ki (nM)>


> <IC50 (nM)>
 18400

> <Kd (nM)>


> <EC50 (nM)>


> <kon (M-1-s-1)>


> <koff (s-1)>


> <pH>


> <Temp C>


> <Curation/DataSource>
ChEMBL

> <Article DOI>
10.1016/j.bmc.2017.11.018

> <BindingDB Entry DOI>
10.7270/Q2QF8WF7

> <PMID>
29162308

> <PubChem AID>


> <Patent Number>


> <Authors>
Kwon, J; Mistry, T; Ren, J; Johnson, ME; Mehboob, S

> <Institution>
Novalex Therapeutics

> <Link to Ligand in BindingDB>
http://www.bindingdb.org/bind/chemsearch/marvin/MolStructure.jsp?monomerid=50452481

> <Link to Ligand-Target Pair in BindingDB>
http://www.bindingdb.org/jsp/dbsearch/PrimarySearch_ki.jsp?energyterm=kJ/mole&tag=pol&polymerid=50004708&target=Enoyl-%5Bacyl-carrier-protein%5D+reductase+%5BNADPH%5D+FabI+%5B9-251%5D&column=ki&startPg=0&Increment=50&submit=Search

> <Link to Ligand-Target Pair in BindingDB>
http://www.bindingdb.org/jsp/dbsearch/PrimarySearch_ki.jsp?energyterm=kJ/mole&tag=r21&monomerid=50452481&enzyme=Enoyl-%5Bacyl-carrier-protein%5D+reductase+%5BNADPH%5D+FabI+%5B9-251%5D&column=ki&startPg=0&Increment=50&submit=Search

> <Ligand HET ID in PDB>


> <PDB ID(s) for Ligand-Target Complex>


> <PubChem CID of Ligand>
122243171

> <PubChem SID of Ligand>
433921347

> <ChEBI ID of Ligand>


> <ChEMBL ID of Ligand>


> <DrugBank ID of Ligand>


> <IUPHAR_GRAC ID of Ligand>


> <KEGG ID of Ligand>


> <ZINC ID of Ligand>


> <Number of Protein Chains in Target (bigger than 1 implies a multichain complex)>
1

> <BindingDB Target Chain Sequence>
YVIMGIANKRSIAFGVAKVLDQLGAKLVFTYRKERSRKELEKLLEQLNQPEAHLYQIDVQSDEEVINGFEQIGKDVGNIDGVYHSIAFANMEDLRGRFSETSREGFLLAQDISSYSLTIVAHEAKKLMPEGGSIVATTYLGGEFAVQNYNVMGVAKASLEANVKYLALDLGPDNIRVNAISAGPIRTLSAKGVGGFNTILKEIEERAPLKRNVDQVEVGKTAAYLLSDLSSGVTGENIHVDSG

> <PDB ID(s) of Target Chain>
3GNS,3GNT,3GR6,4ALI,4ALJ,4ALK,4ALL,4ALM,4ALN,4BNF,4BNG,4BNH,4BNI,4BNJ,4BNK,4BNL,4BNM,4BNN,4CUZ,4CV0,4CV1,4D41,4D42,4D43,4D44,4D45,4FS3,4NZ9,6TBB,6TBC,6YUR

> <UniProt (SwissProt) Recommended Name of Target Chain>
Enoyl-[acyl-carrier-protein] reductase [NADPH] FabI

> <UniProt (SwissProt) Entry Name of Target Chain>
FABI_STAAR

> <UniProt (SwissProt) Primary ID of Target Chain>
Q6GI75

> <UniProt (SwissProt) Secondary ID(s) of Target Chain>


> <UniProt (SwissProt) Alternative ID(s) of Target Chain>


> <UniProt (TrEMBL) Submitted Name of Target Chain>


> <UniProt (TrEMBL) Entry Name of Target Chain>


> <UniProt (TrEMBL) Primary ID of Target Chain>


> <UniProt (TrEMBL) Secondary ID(s) of Target Chain>


> <UniProt (TrEMBL) Alternative ID(s) of Target Chain>


$$$$
6

Vconf v2.0 Academic SN VC001-00000579
 28 29  0  0  0  0  0  0  0  0999 V2000
   -2.9910    3.1250    0.7530 C   0  0  0  0  0  0  0  0  0  0  0
   -4.2470    2.5010    0.6610 C   0  0  0  0  0  0  0  0  0  0  0
   -4.3510    1.1120    0.4250 C   0  0  0  0  0  0  0  0  0  0  0
   -3.1580    0.3670    0.2860 C   0  0  0  0  0  0  0  0  0  0  0
   -1.9020    0.9910    0.3780 C   0  0  0  0  0  0  0  0  0  0  0
   -1.8080    2.3800    0.6030 C   0  0  0  0  0  0  0  0  0  0  0
   -2.9260    4.4550    0.9870 O   0  0  0  0  0  0  0  0  0  0  0
   -0.6190    3.0510    0.7280 O   0  0  0  0  0  0  0  0  0  0  0
    0.5610    2.6680    0.1450 C   0  0  0  0  0  0  0  0  0  0  0
    1.7420    2.6180    0.9160 C   0  0  0  0  0  0  0  0  0  0  0
    0.6230    2.3680   -1.2320 C   0  0  0  0  0  0  0  0  0  0  0
    1.8400    2.0000   -1.8290 C   0  0  0  0  0  0  0  0  0  0  0
    3.0130    1.9370   -1.0560 C   0  0  0  0  0  0  0  0  0  0  0
    2.9620    2.2470    0.3160 C   0  0  0  0  0  0  0  0  0  0  0
    1.7220    2.9890    2.5690 Cl  0  0  0  0  0  0  0  0  0  0  0
    4.4790    1.4930   -1.7730 Cl  0  0  0  0  0  0  0  0  0  0  0
   -5.6120    0.4730    0.3370 C   0  0  0  0  0  0  0  0  0  0  0
   -6.7700    1.1350    0.4940 N   0  0  0  0  0  0  0  0  0  0  0
   -5.7060   -0.7540    0.1100 O   0  0  0  0  0  0  0  0  0  0  0
   -5.0850    3.0730    0.7710 H   0  0  0  0  0  0  0  0  0  0  0
   -3.1950   -0.6400    0.1200 H   0  0  0  0  0  0  0  0  0  0  0
   -1.0570    0.4270    0.2870 H   0  0  0  0  0  0  0  0  0  0  0
   -2.0100    4.8030    1.0470 H   0  0  0  0  0  0  0  0  0  0  0
   -0.2210    2.4200   -1.8030 H   0  0  0  0  0  0  0  0  0  0  0
    1.8640    1.7820   -2.8270 H   0  0  0  0  0  0  0  0  0  0  0
    3.8150    2.2050    0.8780 H   0  0  0  0  0  0  0  0  0  0  0
   -7.6080    0.6530    0.4260 H   0  0  0  0  0  0  0  0  0  0  0
   -6.7710    2.0870    0.6740 H   0  0  0  0  0  0  0  0  0  0  0
  1  2  2  0  0  0  0
  1  6  1  0  0  0  0
  1  7  1  0  0  0  0
  2  3  1  0  0  0  0
  2 20  1  0  0  0  0
  3  4  2  0  0  0  0
  3 17  1  0  0  0  0
  4  5  1  0  0  0  0
  4 21  1  0  0  0  0
  5  6  2  0  0  0  0
  5 22  1  0  0  0  0
  6  8  1  0  0  0  0
  7 23  1  0  0  0  0
  8  9  1  0  0  0  0
  9 10  2  0  0  0  0
  9 11  1  0  0  0  0
 10 14  1  0  0  0  0
 10 15  1  0  0  0  0
 11 12  2  0  0  0  0
 11 24  1  0  0  0  0
 12 13  1  0  0  0  0
 12 25  1  0  0  0  0
 13 14  2  0  0  0  0
 13 16  1  0  0  0  0
 14 26  1  0  0  0  0
 17 18  1  0  0  0  0
 17 19  2  0  0  0  0
 18 27  1  0  0  0  0
 18 28  1  0  0  0  0
M  END
> <From>
www.bindingDB.org

> <BindingDB Reactant_set_id>
46058

> <Ligand InChI>
InChI=1S/C13H9Cl2NO3/c14-8-2-4-11(9(15)6-8)19-12-3-1-7(13(16)18)5-10(12)17/h1-6,17H,(H2,16,18)

> <Ligand InChI Key>
YQHOEKKSRDSREJ-UHFFFAOYSA-N

> <BindingDB MonomerID>
25405

> <BindingDB Ligand Name>
4-(2,4-dichlorophenoxy)-3-hydroxybenzamide::Triclosan derivative, 6

> <Target Name>
Enoyl-ACP reductase

> <Target Source Organism According to Curator or DataSource>
Plasmodium falciparum

> <Ki (nM)>


> <IC50 (nM)>
 21000

> <Kd (nM)>


> <EC50 (nM)>


> <kon (M-1-s-1)>


> <koff (s-1)>


> <pH>
7.9

> <Temp C>
25.00

> <Curation/DataSource>
Curated from the literature by BindingDB

> <Article DOI>
10.1074/jbc.M701813200

> <BindingDB Entry DOI>
10.7270/Q22V2DFD

> <PMID>
17567585

> <PubChem AID>
aid1798551

> <Patent Number>


> <Authors>
Freundlich, JS; Wang, F; Tsai, HC; Kuo, M; Shieh, HM; Anderson, JW; Nkrumah, LJ; Valderramos, JC; Yu, M; Kumar, TR; Valderramos, SG; Jacobs, WR; Schiehser, GA; Jacobus, DP; Fidock, DA; Sacchettini, JC

> <Institution>
Jacobus Pharmaceutical Company

> <Link to Ligand in BindingDB>
http://www.bindingdb.org/bind/chemsearch/marvin/MolStructure.jsp?monomerid=25405

> <Link to Ligand-Target Pair in BindingDB>
http://www.bindingdb.org/jsp/dbsearch/PrimarySearch_ki.jsp?energyterm=kJ/mole&tag=pol&polymerid=2820&target=Enoyl-ACP+reductase&column=ki&startPg=0&Increment=50&submit=Search

> <Link to Ligand-Target Pair in BindingDB>
http://www.bindingdb.org/jsp/dbsearch/PrimarySearch_ki.jsp?energyterm=kJ/mole&tag=r21&monomerid=25405&enzyme=Enoyl-ACP+reductase&column=ki&startPg=0&Increment=50&submit=Search

> <Ligand HET ID in PDB>


> <PDB ID(s) for Ligand-Target Complex>


> <PubChem CID of Ligand>
25023957

> <PubChem SID of Ligand>
56374544

> <ChEBI ID of Ligand>


> <ChEMBL ID of Ligand>


> <DrugBank ID of Ligand>


> <IUPHAR_GRAC ID of Ligand>


> <KEGG ID of Ligand>


> <ZINC ID of Ligand>
ZINC29059624

> <Number of Protein Chains in Target (bigger than 1 implies a multichain complex)>
1

> <BindingDB Target Chain Sequence>
MNKISQRLLFLFLHFYTTVCFIQNNTQKTFHNVLQNEQIRGKEKAFYRKEKRENIFIGNK
MKHVHNMNNTHNNNHYMEKEEQDASNINKIKEENKNEDICFIAGIGDTNGYGWGIAKELS
KRNVKIIFGIWPPVYNIFMKNYKNGKFDNDMIIDKDKKMNILDMLPFDASFDTANDIDEE
TKNNKRYNMLQNYTIEDVANLIHQKYGKINMLVHSLANAKEVQKDLLNTSRKGYLDALSK
SSYSLISLCKYFVNIMKPQSSIISLTYHASQKVVPGYGGGMSSAKAALESDTRVLAYHLG
RNYNIRINTISAGPLKSRAATAINKLNNTYENNTNQNKNRNRHDVHNIMNNSGEKEEKKI
SASQNYTFIDYAIEYSEKYAPLRQKLLSTDIGSVASFLLSRESRAITGQTIYVDNGLNIM
FLPDDIYRNENE

> <PDB ID(s) of Target Chain>
1NHG,1NHW,1NNU,1UH5,1V35,2FOI,2NQ8,3LSY,3LT0,3LT1,3LT2,3LT4

> <UniProt (SwissProt) Recommended Name of Target Chain>


> <UniProt (SwissProt) Entry Name of Target Chain>


> <UniProt (SwissProt) Primary ID of Target Chain>


> <UniProt (SwissProt) Secondary ID(s) of Target Chain>


> <UniProt (SwissProt) Alternative ID(s) of Target Chain>


> <UniProt (TrEMBL) Submitted Name of Target Chain>
Enoyl-ACP reductase

> <UniProt (TrEMBL) Entry Name of Target Chain>
Q9BJJ9_PLAFA

> <UniProt (TrEMBL) Primary ID of Target Chain>
Q9BJJ9

> <UniProt (TrEMBL) Secondary ID(s) of Target Chain>


> <UniProt (TrEMBL) Alternative ID(s) of Target Chain>


$$$$
BindingDB_51108817_3D

Vconf v2.1
 45 47  0  0  0  0  0  0  0  0999 V2000
   10.8570  -12.0450    2.2950 C   0  0  2  0  0  0  0  0  0  0  0
   11.5130  -13.2040    1.5270 C   0  0  0  0  0  0  0  0  0  0  0
   10.9280  -13.1520    0.2300 N   0  0  0  0  0  0  0  0  0  0  0
   10.1650  -11.9750   -0.0030 C   0  0  0  0  0  0  0  0  0  0  0
   10.4780  -11.0610    1.1840 C   0  0  0  0  0  0  0  0  0  0  0
   11.7270  -11.4560    3.3310 C   0  0  0  0  0  0  0  0  0  0  0
   11.0740  -14.1150   -0.7270 C   0  0  0  0  0  0  0  0  0  0  0
   10.4870  -13.9500   -1.8220 O   0  0  0  0  0  0  0  0  0  0  0
   11.8580  -15.2700   -0.5260 C   0  0  0  0  0  0  0  0  0  0  0
   12.0120  -16.2670   -1.4980 C   0  0  0  0  0  0  0  0  0  0  0
   12.7940  -17.4410   -1.3540 C   0  0  0  0  0  0  0  0  0  0  0
   13.5350  -17.7630   -0.1960 C   0  0  0  0  0  0  0  0  0  0  0
   14.2590  -18.9070   -0.1410 N   0  0  0  0  0  0  0  0  0  0  0
   14.3280  -19.8030   -1.1590 C   0  0  0  0  0  0  0  0  0  0  0
   13.6110  -19.5350   -2.3360 C   0  0  0  0  0  0  0  0  0  0  0
   12.8500  -18.3580   -2.4250 C   0  0  0  0  0  0  0  0  0  0  0
   15.0550  -20.9450   -1.0910 N   0  0  0  0  0  0  0  0  0  0  0
   15.8030  -21.3630   -0.0410 C   0  0  0  0  0  0  0  0  0  0  0
   16.5130  -22.6370   -0.1620 C   0  0  0  0  0  0  0  0  0  0  0
   15.9150  -20.7150    1.0240 O   0  0  0  0  0  0  0  0  0  0  0
   12.9390  -10.9490    2.9830 N   0  0  0  0  0  0  0  0  0  0  0
   13.7950  -10.3900    3.8740 C   0  0  0  0  0  0  0  0  0  0  0
   13.4370  -10.3180    5.2280 C   0  0  0  0  0  0  0  0  0  0  0
   12.1930  -10.8320    5.6270 C   0  0  0  0  0  0  0  0  0  0  0
   11.3290  -11.4060    4.6810 C   0  0  0  0  0  0  0  0  0  0  0
    9.9320  -12.4180    2.7400 H   0  0  0  0  0  0  0  0  0  0  0
   12.5950  -13.0760    1.4450 H   0  0  0  0  0  0  0  0  0  0  0
   11.2840  -14.1440    2.0320 H   0  0  0  0  0  0  0  0  0  0  0
    9.1020  -12.2180   -0.0300 H   0  0  0  0  0  0  0  0  0  0  0
   10.4620  -11.4840   -0.9320 H   0  0  0  0  0  0  0  0  0  0  0
    9.6130  -10.4570    1.4610 H   0  0  0  0  0  0  0  0  0  0  0
   11.3220  -10.4170    0.9290 H   0  0  0  0  0  0  0  0  0  0  0
   12.3340  -15.3730    0.3690 H   0  0  0  0  0  0  0  0  0  0  0
   11.5190  -16.1340   -2.3840 H   0  0  0  0  0  0  0  0  0  0  0
   13.5400  -17.1460    0.6160 H   0  0  0  0  0  0  0  0  0  0  0
   13.6390  -20.1860   -3.1210 H   0  0  0  0  0  0  0  0  0  0  0
   12.3330  -18.1760   -3.2870 H   0  0  0  0  0  0  0  0  0  0  0
   15.0390  -21.5220   -1.8690 H   0  0  0  0  0  0  0  0  0  0  0
   17.0660  -22.8460    0.7550 H   0  0  0  0  0  0  0  0  0  0  0
   15.7950  -23.4390   -0.3360 H   0  0  0  0  0  0  0  0  0  0  0
   17.2110  -22.5880   -0.9970 H   0  0  0  0  0  0  0  0  0  0  0
   14.6940  -10.0230    3.5590 H   0  0  0  0  0  0  0  0  0  0  0
   14.0690   -9.9000    5.9110 H   0  0  0  0  0  0  0  0  0  0  0
   11.9150  -10.7880    6.6080 H   0  0  0  0  0  0  0  0  0  0  0
   10.4250  -11.7790    4.9710 H   0  0  0  0  0  0  0  0  0  0  0
  1  2  1  0  0  0  0
  1  5  1  0  0  0  0
  1  6  1  0  0  0  0
  1 26  1  0  0  0  0
  2  3  1  0  0  0  0
  2 27  1  0  0  0  0
  2 28  1  0  0  0  0
  3  4  1  0  0  0  0
  3  7  1  0  0  0  0
  4  5  1  0  0  0  0
  4 29  1  0  0  0  0
  4 30  1  0  0  0  0
  5 31  1  0  0  0  0
  5 32  1  0  0  0  0
  6 21  2  0  0  0  0
  6 25  1  0  0  0  0
  7  8  2  0  0  0  0
  7  9  1  0  0  0  0
  9 10  2  0  0  0  0
  9 33  1  0  0  0  0
 10 11  1  0  0  0  0
 10 34  1  0  0  0  0
 11 12  2  0  0  0  0
 11 16  1  0  0  0  0
 12 13  1  0  0  0  0
 12 35  1  0  0  0  0
 13 14  2  0  0  0  0
 14 15  1  0  0  0  0
 14 17  1  0  0  0  0
 15 16  2  0  0  0  0
 15 36  1  0  0  0  0
 16 37  1  0  0  0  0
 17 18  1  0  0  0  0
 17 38  1  0  0  0  0
 18 19  1  0  0  0  0
 18 20  2  0  0  0  0
 19 39  1  0  0  0  0
 19 40  1  0  0  0  0
 19 41  1  0  0  0  0
 21 22  1  0  0  0  0
 22 23  2  0  0  0  0
 22 42  1  0  0  0  0
 23 24  1  0  0  0  0
 23 43  1  0  0  0  0
 24 25  2  0  0  0  0
 24 44  1  0  0  0  0
 25 45  1  0  0  0  0
M  END
> <From>
www.bindingDB.org

> <BindingDB Reactant_set_id>
51108817

> <Ligand InChI>
InChI=1S/C19H20N4O2/c1-14(24)22-18-7-5-15(12-21-18)6-8-19(25)23-11-9-16(13-23)17-4-2-3-10-20-17/h2-8,10,12,16H,9,11,13H2,1H3,(H,21,22,24)/b8-6+

> <Ligand InChI Key>
FTVYETAUGRLCJB-SOFGYWHQSA-N

> <BindingDB MonomerID>
50452498

> <BindingDB Ligand Name>
CHEMBL4217928

> <Target Name>
Enoyl-[acyl-carrier-protein] reductase [NADPH] FabI [9-251]

> <Target Source Organism According to Curator or DataSource>
Staphylococcus aureus

> <Ki (nM)>


> <IC50 (nM)>
 28400

> <Kd (nM)>


> <EC50 (nM)>


> <kon (M-1-s-1)>


> <koff (s-1)>


> <pH>


> <Temp C>


> <Curation/DataSource>
ChEMBL

> <Article DOI>
10.1016/j.bmc.2017.11.018

> <BindingDB Entry DOI>
10.7270/Q2QF8WF7

> <PMID>
29162308

> <PubChem AID>


> <Patent Number>


> <Authors>
Kwon, J; Mistry, T; Ren, J; Johnson, ME; Mehboob, S

> <Institution>
Novalex Therapeutics

> <Link to Ligand in BindingDB>
http://www.bindingdb.org/bind/chemsearch/marvin/MolStructure.jsp?monomerid=50452498

> <Link to Ligand-Target Pair in BindingDB>
http://www.bindingdb.org/jsp/dbsearch/PrimarySearch_ki.jsp?energyterm=kJ/mole&tag=pol&polymerid=50004708&target=Enoyl-%5Bacyl-carrier-protein%5D+reductase+%5BNADPH%5D+FabI+%5B9-251%5D&column=ki&startPg=0&Increment=50&submit=Search

> <Link to Ligand-Target Pair in BindingDB>
http://www.bindingdb.org/jsp/dbsearch/PrimarySearch_ki.jsp?energyterm=kJ/mole&tag=r21&monomerid=50452498&enzyme=Enoyl-%5Bacyl-carrier-protein%5D+reductase+%5BNADPH%5D+FabI+%5B9-251%5D&column=ki&startPg=0&Increment=50&submit=Search

> <Ligand HET ID in PDB>


> <PDB ID(s) for Ligand-Target Complex>


> <PubChem CID of Ligand>
122243064

> <PubChem SID of Ligand>
433921354

> <ChEBI ID of Ligand>


> <ChEMBL ID of Ligand>


> <DrugBank ID of Ligand>


> <IUPHAR_GRAC ID of Ligand>


> <KEGG ID of Ligand>


> <ZINC ID of Ligand>


> <Number of Protein Chains in Target (bigger than 1 implies a multichain complex)>
1

> <BindingDB Target Chain Sequence>
YVIMGIANKRSIAFGVAKVLDQLGAKLVFTYRKERSRKELEKLLEQLNQPEAHLYQIDVQSDEEVINGFEQIGKDVGNIDGVYHSIAFANMEDLRGRFSETSREGFLLAQDISSYSLTIVAHEAKKLMPEGGSIVATTYLGGEFAVQNYNVMGVAKASLEANVKYLALDLGPDNIRVNAISAGPIRTLSAKGVGGFNTILKEIEERAPLKRNVDQVEVGKTAAYLLSDLSSGVTGENIHVDSG

> <PDB ID(s) of Target Chain>
3GNS,3GNT,3GR6,4ALI,4ALJ,4ALK,4ALL,4ALM,4ALN,4BNF,4BNG,4BNH,4BNI,4BNJ,4BNK,4BNL,4BNM,4BNN,4CUZ,4CV0,4CV1,4D41,4D42,4D43,4D44,4D45,4FS3,4NZ9,6TBB,6TBC,6YUR

> <UniProt (SwissProt) Recommended Name of Target Chain>
Enoyl-[acyl-carrier-protein] reductase [NADPH] FabI

> <UniProt (SwissProt) Entry Name of Target Chain>
FABI_STAAR

> <UniProt (SwissProt) Primary ID of Target Chain>
Q6GI75

> <UniProt (SwissProt) Secondary ID(s) of Target Chain>


> <UniProt (SwissProt) Alternative ID(s) of Target Chain>


> <UniProt (TrEMBL) Submitted Name of Target Chain>


> <UniProt (TrEMBL) Entry Name of Target Chain>


> <UniProt (TrEMBL) Primary ID of Target Chain>


> <UniProt (TrEMBL) Secondary ID(s) of Target Chain>


> <UniProt (TrEMBL) Alternative ID(s) of Target Chain>


$$$$
24

Vconf v2.0 Academic SN VC001-00000579
 33 35  0  0  0  0  0  0  0  0999 V2000
   -2.9680    3.0600    0.9280 C   0  0  0  0  0  0  0  0  0  0  0
   -4.2090    2.4060    0.8500 C   0  0  0  0  0  0  0  0  0  0  0
   -4.2940    1.0230    0.5600 C   0  0  0  0  0  0  0  0  0  0  0
   -3.0810    0.3210    0.3560 C   0  0  0  0  0  0  0  0  0  0  0
   -1.8390    0.9740    0.4330 C   0  0  0  0  0  0  0  0  0  0  0
   -1.7730    2.3540    0.7070 C   0  0  0  0  0  0  0  0  0  0  0
   -2.9290    4.3810    1.2130 O   0  0  0  0  0  0  0  0  0  0  0
   -0.5970    3.0500    0.8140 O   0  0  0  0  0  0  0  0  0  0  0
    0.5570    2.7680    0.1280 C   0  0  0  0  0  0  0  0  0  0  0
    1.7990    2.8520    0.7960 C   0  0  0  0  0  0  0  0  0  0  0
    0.5370    2.4470   -1.2460 C   0  0  0  0  0  0  0  0  0  0  0
    1.7300    2.1840   -1.9390 C   0  0  0  0  0  0  0  0  0  0  0
    2.9630    2.2540   -1.2660 C   0  0  0  0  0  0  0  0  0  0  0
    2.9950    2.5910    0.0990 C   0  0  0  0  0  0  0  0  0  0  0
    1.8810    3.2580    2.4390 Cl  0  0  0  0  0  0  0  0  0  0  0
   -5.5570    0.3600    0.4790 C   0  0  0  0  0  0  0  0  0  0  0
   -5.7700   -0.7340   -0.3930 C   0  0  0  0  0  0  0  0  0  0  0
   -7.0140   -1.3800   -0.4690 C   0  0  0  0  0  0  0  0  0  0  0
   -6.6610    0.7630    1.2660 C   0  0  0  0  0  0  0  0  0  0  0
   -8.0620   -0.9230    0.3410 C   0  0  0  0  0  0  0  0  0  0  0
   -7.8530    0.1230    1.1750 N   0  0  0  0  0  0  0  0  0  0  0
    4.4020    1.9400   -2.0990 Cl  0  0  0  0  0  0  0  0  0  0  0
   -5.0550    2.9580    0.9980 H   0  0  0  0  0  0  0  0  0  0  0
   -3.0890   -0.6810    0.1630 H   0  0  0  0  0  0  0  0  0  0  0
   -0.9830    0.4370    0.2930 H   0  0  0  0  0  0  0  0  0  0  0
   -2.0220    4.7510    1.2560 H   0  0  0  0  0  0  0  0  0  0  0
   -0.3510    2.4050   -1.7470 H   0  0  0  0  0  0  0  0  0  0  0
    1.6920    1.9470   -2.9310 H   0  0  0  0  0  0  0  0  0  0  0
    3.8920    2.6480    0.5870 H   0  0  0  0  0  0  0  0  0  0  0
   -5.0180   -1.0670   -0.9970 H   0  0  0  0  0  0  0  0  0  0  0
   -7.1540   -2.1650   -1.1040 H   0  0  0  0  0  0  0  0  0  0  0
   -6.5770    1.5380    1.9260 H   0  0  0  0  0  0  0  0  0  0  0
   -8.9760   -1.3750    0.3040 H   0  0  0  0  0  0  0  0  0  0  0
  1  2  2  0  0  0  0
  1  6  1  0  0  0  0
  1  7  1  0  0  0  0
  2  3  1  0  0  0  0
  2 23  1  0  0  0  0
  3  4  2  0  0  0  0
  3 16  1  0  0  0  0
  4  5  1  0  0  0  0
  4 24  1  0  0  0  0
  5  6  2  0  0  0  0
  5 25  1  0  0  0  0
  6  8  1  0  0  0  0
  7 26  1  0  0  0  0
  8  9  1  0  0  0  0
  9 10  2  0  0  0  0
  9 11  1  0  0  0  0
 10 14  1  0  0  0  0
 10 15  1  0  0  0  0
 11 12  2  0  0  0  0
 11 27  1  0  0  0  0
 12 13  1  0  0  0  0
 12 28  1  0  0  0  0
 13 14  2  0  0  0  0
 13 22  1  0  0  0  0
 14 29  1  0  0  0  0
 16 17  1  0  0  0  0
 16 19  2  0  0  0  0
 17 18  2  0  0  0  0
 17 30  1  0  0  0  0
 18 20  1  0  0  0  0
 18 31  1  0  0  0  0
 19 21  1  0  0  0  0
 19 32  1  0  0  0  0
 20 21  2  0  0  0  0
 20 33  1  0  0  0  0
M  END
> <From>
www.bindingDB.org

> <BindingDB Reactant_set_id>
46076

> <Ligand InChI>
InChI=1S/C17H11Cl2NO2/c18-13-4-6-16(14(19)9-13)22-17-5-3-11(8-15(17)21)12-2-1-7-20-10-12/h1-10,21H

> <Ligand InChI Key>
QZPFPIZULRKVFH-UHFFFAOYSA-N

> <BindingDB MonomerID>
25423

> <BindingDB Ligand Name>
2-(2,4-dichlorophenoxy)-5-(pyridin-3-yl)phenol::Triclosan derivative, 24

> <Target Name>
Enoyl-ACP reductase

> <Target Source Organism According to Curator or DataSource>
Plasmodium falciparum

> <Ki (nM)>


> <IC50 (nM)>
 33000

> <Kd (nM)>


> <EC50 (nM)>


> <kon (M-1-s-1)>


> <koff (s-1)>


> <pH>
7.9

> <Temp C>
25.00

> <Curation/DataSource>
Curated from the literature by BindingDB

> <Article DOI>
10.1074/jbc.M701813200

> <BindingDB Entry DOI>
10.7270/Q22V2DFD

> <PMID>
17567585

> <PubChem AID>
aid1798551

> <Patent Number>


> <Authors>
Freundlich, JS; Wang, F; Tsai, HC; Kuo, M; Shieh, HM; Anderson, JW; Nkrumah, LJ; Valderramos, JC; Yu, M; Kumar, TR; Valderramos, SG; Jacobs, WR; Schiehser, GA; Jacobus, DP; Fidock, DA; Sacchettini, JC

> <Institution>
Jacobus Pharmaceutical Company

> <Link to Ligand in BindingDB>
http://www.bindingdb.org/bind/chemsearch/marvin/MolStructure.jsp?monomerid=25423

> <Link to Ligand-Target Pair in BindingDB>
http://www.bindingdb.org/jsp/dbsearch/PrimarySearch_ki.jsp?energyterm=kJ/mole&tag=pol&polymerid=2820&target=Enoyl-ACP+reductase&column=ki&startPg=0&Increment=50&submit=Search

> <Link to Ligand-Target Pair in BindingDB>
http://www.bindingdb.org/jsp/dbsearch/PrimarySearch_ki.jsp?energyterm=kJ/mole&tag=r21&monomerid=25423&enzyme=Enoyl-ACP+reductase&column=ki&startPg=0&Increment=50&submit=Search

> <Ligand HET ID in PDB>


> <PDB ID(s) for Ligand-Target Complex>


> <PubChem CID of Ligand>
25023970

> <PubChem SID of Ligand>
56374562

> <ChEBI ID of Ligand>


> <ChEMBL ID of Ligand>


> <DrugBank ID of Ligand>


> <IUPHAR_GRAC ID of Ligand>


> <KEGG ID of Ligand>


> <ZINC ID of Ligand>
ZINC29060899

> <Number of Protein Chains in Target (bigger than 1 implies a multichain complex)>
1

> <BindingDB Target Chain Sequence>
MNKISQRLLFLFLHFYTTVCFIQNNTQKTFHNVLQNEQIRGKEKAFYRKEKRENIFIGNK
MKHVHNMNNTHNNNHYMEKEEQDASNINKIKEENKNEDICFIAGIGDTNGYGWGIAKELS
KRNVKIIFGIWPPVYNIFMKNYKNGKFDNDMIIDKDKKMNILDMLPFDASFDTANDIDEE
TKNNKRYNMLQNYTIEDVANLIHQKYGKINMLVHSLANAKEVQKDLLNTSRKGYLDALSK
SSYSLISLCKYFVNIMKPQSSIISLTYHASQKVVPGYGGGMSSAKAALESDTRVLAYHLG
RNYNIRINTISAGPLKSRAATAINKLNNTYENNTNQNKNRNRHDVHNIMNNSGEKEEKKI
SASQNYTFIDYAIEYSEKYAPLRQKLLSTDIGSVASFLLSRESRAITGQTIYVDNGLNIM
FLPDDIYRNENE

> <PDB ID(s) of Target Chain>
1NHG,1NHW,1NNU,1UH5,1V35,2FOI,2NQ8,3LSY,3LT0,3LT1,3LT2,3LT4

> <UniProt (SwissProt) Recommended Name of Target Chain>


> <UniProt (SwissProt) Entry Name of Target Chain>


> <UniProt (SwissProt) Primary ID of Target Chain>


> <UniProt (SwissProt) Secondary ID(s) of Target Chain>


> <UniProt (SwissProt) Alternative ID(s) of Target Chain>


> <UniProt (TrEMBL) Submitted Name of Target Chain>
Enoyl-ACP reductase

> <UniProt (TrEMBL) Entry Name of Target Chain>
Q9BJJ9_PLAFA

> <UniProt (TrEMBL) Primary ID of Target Chain>
Q9BJJ9

> <UniProt (TrEMBL) Secondary ID(s) of Target Chain>


> <UniProt (TrEMBL) Alternative ID(s) of Target Chain>


$$$$
BindingDB_50240896_mol_1

Vconf v2.0 Academic SN VC001-00000579
 35 37  0  0  0  0  0  0  0  0999 V2000
    7.9880   -2.0930    0.6970 C   0  0  0  0  0  0  0  0  0  0  0
    8.2190   -3.3080    0.0320 C   0  0  0  0  0  0  0  0  0  0  0
    9.3640   -4.0710    0.3210 C   0  0  0  0  0  0  0  0  0  0  0
    8.9070   -1.6350    1.6550 C   0  0  0  0  0  0  0  0  0  0  0
   10.0520   -2.3940    1.9470 C   0  0  0  0  0  0  0  0  0  0  0
   10.2950   -3.6190    1.2880 C   0  0  0  0  0  0  0  0  0  0  0
   11.4520   -4.3010    1.6460 C   0  0  0  0  0  0  0  0  0  0  0
   12.3220   -3.7970    2.5620 C   0  0  0  0  0  0  0  0  0  0  0
   12.0530   -2.6280    3.1780 C   0  0  0  0  0  0  0  0  0  0  0
   10.9390   -1.9360    2.8790 O   0  0  0  0  0  0  0  0  0  0  0
    9.5280   -5.2320   -0.3550 O   0  0  0  0  0  0  0  0  0  0  0
    6.8830   -1.3700    0.4100 O   0  0  0  0  0  0  0  0  0  0  0
   11.7090   -5.3880    1.1460 O   0  0  0  0  0  0  0  0  0  0  0
   13.4390   -4.4720    2.8490 O   0  0  0  0  0  0  0  0  0  0  0
   12.8940   -2.0640    4.1170 C   0  0  0  0  0  0  0  0  0  0  0
   13.3670   -0.7480    3.9320 C   0  0  0  0  0  0  0  0  0  0  0
   14.2200   -0.1570    4.8800 C   0  0  0  0  0  0  0  0  0  0  0
   14.6040   -0.8750    6.0240 C   0  0  0  0  0  0  0  0  0  0  0
   14.1340   -2.1850    6.2230 C   0  0  0  0  0  0  0  0  0  0  0
   13.2800   -2.7750    5.2740 C   0  0  0  0  0  0  0  0  0  0  0
   14.5050   -2.8740    7.3260 O   0  0  0  0  0  0  0  0  0  0  0
   15.4250   -0.3060    6.9330 O   0  0  0  0  0  0  0  0  0  0  0
   14.5290   -4.3700    1.9320 C   0  0  0  0  0  0  0  0  0  0  0
    7.5510   -3.6380   -0.6650 H   0  0  0  0  0  0  0  0  0  0  0
    8.7430   -0.7520    2.1400 H   0  0  0  0  0  0  0  0  0  0  0
   10.3340   -5.7390   -0.1230 H   0  0  0  0  0  0  0  0  0  0  0
    6.7950   -0.5370    0.9190 H   0  0  0  0  0  0  0  0  0  0  0
   13.0930   -0.2160    3.1040 H   0  0  0  0  0  0  0  0  0  0  0
   14.5600    0.7940    4.7360 H   0  0  0  0  0  0  0  0  0  0  0
   12.9410   -3.7260    5.4270 H   0  0  0  0  0  0  0  0  0  0  0
   14.1390   -3.7820    7.3830 H   0  0  0  0  0  0  0  0  0  0  0
   15.6310   -0.8880    7.6960 H   0  0  0  0  0  0  0  0  0  0  0
   15.3620   -4.9640    2.3060 H   0  0  0  0  0  0  0  0  0  0  0
   14.2370   -4.7470    0.9510 H   0  0  0  0  0  0  0  0  0  0  0
   14.8470   -3.3300    1.8430 H   0  0  0  0  0  0  0  0  0  0  0
  1  2  2  0  0  0  0
  1  4  1  0  0  0  0
  1 12  1  0  0  0  0
  2  3  1  0  0  0  0
  2 24  1  0  0  0  0
  3  6  2  0  0  0  0
  3 11  1  0  0  0  0
  4  5  2  0  0  0  0
  4 25  1  0  0  0  0
  5  6  1  0  0  0  0
  5 10  1  0  0  0  0
  6  7  1  0  0  0  0
  7  8  1  0  0  0  0
  7 13  2  0  0  0  0
  8  9  2  0  0  0  0
  8 14  1  0  0  0  0
  9 10  1  0  0  0  0
  9 15  1  0  0  0  0
 11 26  1  0  0  0  0
 12 27  1  0  0  0  0
 14 23  1  0  0  0  0
 15 16  2  0  0  0  0
 15 20  1  0  0  0  0
 16 17  1  0  0  0  0
 16 28  1  0  0  0  0
 17 18  2  0  0  0  0
 17 29  1  0  0  0  0
 18 19  1  0  0  0  0
 18 22  1  0  0  0  0
 19 20  2  0  0  0  0
 19 21  1  0  0  0  0
 20 30  1  0  0  0  0
 21 31  1  0  0  0  0
 22 32  1  0  0  0  0
 23 33  1  0  0  0  0
 23 34  1  0  0  0  0
 23 35  1  0  0  0  0
M  END
> <From>
www.bindingDB.org

> <BindingDB Reactant_set_id>
50653133

> <Ligand InChI>
InChI=1S/C16H12O7/c1-22-16-14(21)13-11(20)5-8(17)6-12(13)23-15(16)7-2-3-9(18)10(19)4-7/h2-6,17-20H,1H3

> <Ligand InChI Key>
WEPBGSIAWZTEJR-UHFFFAOYSA-N

> <BindingDB MonomerID>
50240896

> <BindingDB Ligand Name>
2-(3,4-dihydroxyphenyl)-5,7-dihydroxy-3-methoxy-4H-chromen-4-one::3',4',5,7-tetrahydroxy-3-methoxyflavone::CHEMBL163316::cid_5280681

> <Target Name>
Enoyl-ACP reductase

> <Target Source Organism According to Curator or DataSource>
Plasmodium falciparum

> <Ki (nM)>


> <IC50 (nM)>
 35200

> <Kd (nM)>


> <EC50 (nM)>


> <kon (M-1-s-1)>


> <koff (s-1)>


> <pH>


> <Temp C>


> <Curation/DataSource>
ChEMBL

> <Article DOI>
10.1021/np100896w

> <BindingDB Entry DOI>
10.7270/Q2WH2QC7

> <PMID>
21619045

> <PubChem AID>


> <Patent Number>


> <Authors>
Bankeu, JJ; Khayala, R; Lenta, BN; Noungoue, DT; Ngouela, SA; Mustafa, SA; Asaad, K; Choudhary, MI; Prigge, ST; Hasanov, R; Nkengfack, AE; Tsamo, E; Ali, MS

> <Institution>
University of Yaounde

> <Link to Ligand in BindingDB>
http://www.bindingdb.org/bind/chemsearch/marvin/MolStructure.jsp?monomerid=50240896

> <Link to Ligand-Target Pair in BindingDB>
http://www.bindingdb.org/jsp/dbsearch/PrimarySearch_ki.jsp?energyterm=kJ/mole&tag=pol&polymerid=2820&target=Enoyl-ACP+reductase&column=ki&startPg=0&Increment=50&submit=Search

> <Link to Ligand-Target Pair in BindingDB>
http://www.bindingdb.org/jsp/dbsearch/PrimarySearch_ki.jsp?energyterm=kJ/mole&tag=r21&monomerid=50240896&enzyme=Enoyl-ACP+reductase&column=ki&startPg=0&Increment=50&submit=Search

> <Ligand HET ID in PDB>


> <PDB ID(s) for Ligand-Target Complex>


> <PubChem CID of Ligand>
5280681

> <PubChem SID of Ligand>
104098491

> <ChEBI ID of Ligand>
16860

> <ChEMBL ID of Ligand>
CHEMBL163316

> <DrugBank ID of Ligand>


> <IUPHAR_GRAC ID of Ligand>


> <KEGG ID of Ligand>
C04443

> <ZINC ID of Ligand>
ZINC05998596

> <Number of Protein Chains in Target (bigger than 1 implies a multichain complex)>
1

> <BindingDB Target Chain Sequence>
MNKISQRLLFLFLHFYTTVCFIQNNTQKTFHNVLQNEQIRGKEKAFYRKEKRENIFIGNK
MKHVHNMNNTHNNNHYMEKEEQDASNINKIKEENKNEDICFIAGIGDTNGYGWGIAKELS
KRNVKIIFGIWPPVYNIFMKNYKNGKFDNDMIIDKDKKMNILDMLPFDASFDTANDIDEE
TKNNKRYNMLQNYTIEDVANLIHQKYGKINMLVHSLANAKEVQKDLLNTSRKGYLDALSK
SSYSLISLCKYFVNIMKPQSSIISLTYHASQKVVPGYGGGMSSAKAALESDTRVLAYHLG
RNYNIRINTISAGPLKSRAATAINKLNNTYENNTNQNKNRNRHDVHNIMNNSGEKEEKKI
SASQNYTFIDYAIEYSEKYAPLRQKLLSTDIGSVASFLLSRESRAITGQTIYVDNGLNIM
FLPDDIYRNENE

> <PDB ID(s) of Target Chain>
1NHG,1NHW,1NNU,1UH5,1V35,2FOI,2NQ8,3LSY,3LT0,3LT1,3LT2,3LT4

> <UniProt (SwissProt) Recommended Name of Target Chain>


> <UniProt (SwissProt) Entry Name of Target Chain>


> <UniProt (SwissProt) Primary ID of Target Chain>


> <UniProt (SwissProt) Secondary ID(s) of Target Chain>


> <UniProt (SwissProt) Alternative ID(s) of Target Chain>


> <UniProt (TrEMBL) Submitted Name of Target Chain>
Enoyl-ACP reductase

> <UniProt (TrEMBL) Entry Name of Target Chain>
Q9BJJ9_PLAFA

> <UniProt (TrEMBL) Primary ID of Target Chain>
Q9BJJ9

> <UniProt (TrEMBL) Secondary ID(s) of Target Chain>


> <UniProt (TrEMBL) Alternative ID(s) of Target Chain>


$$$$
BindingDB_50349976_mol_1

Vconf v2.0 Academic SN VC001-00000579
 40 43  0  0  0  0  0  0  0  0999 V2000
    5.5010  -13.2000    0.7840 C   0  0  0  0  0  0  0  0  0  0  0
    5.6740  -14.4410    0.1490 C   0  0  0  0  0  0  0  0  0  0  0
    6.8180  -15.2150    0.4100 C   0  0  0  0  0  0  0  0  0  0  0
    6.4740  -12.7320    1.6840 C   0  0  0  0  0  0  0  0  0  0  0
    7.6180  -13.5050    1.9460 C   0  0  0  0  0  0  0  0  0  0  0
    7.8020  -14.7530    1.3110 C   0  0  0  0  0  0  0  0  0  0  0
    8.9590  -15.4610    1.6120 C   0  0  0  0  0  0  0  0  0  0  0
    9.8810  -14.9660    2.4970 C   0  0  0  0  0  0  0  0  0  0  0
    9.6570  -13.7730    3.0780 C   0  0  0  0  0  0  0  0  0  0  0
    8.5610  -13.0460    2.8210 O   0  0  0  0  0  0  0  0  0  0  0
   11.0390  -15.6590    2.8120 C   0  0  0  0  0  0  0  0  0  0  0
   12.2990  -15.1500    2.4320 C   0  0  0  0  0  0  0  0  0  0  0
   13.4750  -15.8480    2.7550 C   0  0  0  0  0  0  0  0  0  0  0
   13.4020  -17.0610    3.4600 C   0  0  0  0  0  0  0  0  0  0  0
   12.1510  -17.5830    3.8450 C   0  0  0  0  0  0  0  0  0  0  0
   10.9740  -16.8780    3.5200 C   0  0  0  0  0  0  0  0  0  0  0
    4.3990  -12.4620    0.5250 O   0  0  0  0  0  0  0  0  0  0  0
    9.1550  -16.5370    1.0590 O   0  0  0  0  0  0  0  0  0  0  0
   12.1050  -18.7750    4.5320 C   0  0  0  0  0  0  0  0  0  0  0
   13.2150  -19.4540    4.8410 C   0  0  0  0  0  0  0  0  0  0  0
   14.5390  -18.9800    4.4760 C   0  0  0  0  0  0  0  0  0  0  0
   14.5520  -17.7260    3.7690 O   0  0  0  0  0  0  0  0  0  0  0
   15.3760  -18.7950    5.7530 C   0  0  0  0  0  0  0  0  0  0  0
   15.2170  -20.0230    3.5710 C   0  0  0  0  0  0  0  0  0  0  0
    4.9680  -14.7810   -0.5050 H   0  0  0  0  0  0  0  0  0  0  0
    6.9320  -16.1140   -0.0590 H   0  0  0  0  0  0  0  0  0  0  0
    6.3520  -11.8310    2.1480 H   0  0  0  0  0  0  0  0  0  0  0
   10.3130  -13.4000    3.7230 H   0  0  0  0  0  0  0  0  0  0  0
   12.3650  -14.2700    1.9180 H   0  0  0  0  0  0  0  0  0  0  0
   14.3820  -15.4730    2.4780 H   0  0  0  0  0  0  0  0  0  0  0
   10.0650  -17.2530    3.7980 H   0  0  0  0  0  0  0  0  0  0  0
    4.3570  -11.6080    1.0040 H   0  0  0  0  0  0  0  0  0  0  0
   11.2300  -19.1510    4.8090 H   0  0  0  0  0  0  0  0  0  0  0
   13.1290  -20.3090    5.3340 H   0  0  0  0  0  0  0  0  0  0  0
   16.3810  -18.4650    5.4870 H   0  0  0  0  0  0  0  0  0  0  0
   14.9140  -18.0400    6.3900 H   0  0  0  0  0  0  0  0  0  0  0
   15.4440  -19.7360    6.3010 H   0  0  0  0  0  0  0  0  0  0  0
   16.2190  -19.6830    3.3090 H   0  0  0  0  0  0  0  0  0  0  0
   15.2890  -20.9820    4.0860 H   0  0  0  0  0  0  0  0  0  0  0
   14.6360  -20.1490    2.6560 H   0  0  0  0  0  0  0  0  0  0  0
  1  2  2  0  0  0  0
  1  4  1  0  0  0  0
  1 17  1  0  0  0  0
  2  3  1  0  0  0  0
  2 25  1  0  0  0  0
  3  6  2  0  0  0  0
  3 26  1  0  0  0  0
  4  5  2  0  0  0  0
  4 27  1  0  0  0  0
  5  6  1  0  0  0  0
  5 10  1  0  0  0  0
  6  7  1  0  0  0  0
  7  8  1  0  0  0  0
  7 18  2  0  0  0  0
  8  9  2  0  0  0  0
  8 11  1  0  0  0  0
  9 10  1  0  0  0  0
  9 28  1  0  0  0  0
 11 12  1  0  0  0  0
 11 16  2  0  0  0  0
 12 13  2  0  0  0  0
 12 29  1  0  0  0  0
 13 14  1  0  0  0  0
 13 30  1  0  0  0  0
 14 15  2  0  0  0  0
 14 22  1  0  0  0  0
 15 16  1  0  0  0  0
 15 19  1  0  0  0  0
 16 31  1  0  0  0  0
 17 32  1  0  0  0  0
 19 20  2  0  0  0  0
 19 33  1  0  0  0  0
 20 21  1  0  0  0  0
 20 34  1  0  0  0  0
 21 22  1  0  0  0  0
 21 23  1  0  0  0  0
 21 24  1  0  0  0  0
 23 35  1  0  0  0  0
 23 36  1  0  0  0  0
 23 37  1  0  0  0  0
 24 38  1  0  0  0  0
 24 39  1  0  0  0  0
 24 40  1  0  0  0  0
M  END
> <From>
www.bindingDB.org

> <BindingDB Reactant_set_id>
50653136

> <Ligand InChI>
InChI=1S/C20H16O4/c1-20(2)8-7-13-9-12(3-6-17(13)24-20)16-11-23-18-10-14(21)4-5-15(18)19(16)22/h3-11,21H,1-2H3

> <Ligand InChI Key>
PWAACAMQKVIVPZ-UHFFFAOYSA-N

> <BindingDB MonomerID>
50349976

> <BindingDB Ligand Name>
ISOWIGHTEONE

> <Target Name>
Enoyl-ACP reductase

> <Target Source Organism According to Curator or DataSource>
Plasmodium falciparum

> <Ki (nM)>


> <IC50 (nM)>
 58950

> <Kd (nM)>


> <EC50 (nM)>


> <kon (M-1-s-1)>


> <koff (s-1)>


> <pH>


> <Temp C>


> <Curation/DataSource>
ChEMBL

> <Article DOI>
10.1021/np100896w

> <BindingDB Entry DOI>
10.7270/Q2WH2QC7

> <PMID>
21619045

> <PubChem AID>


> <Patent Number>


> <Authors>
Bankeu, JJ; Khayala, R; Lenta, BN; Noungoue, DT; Ngouela, SA; Mustafa, SA; Asaad, K; Choudhary, MI; Prigge, ST; Hasanov, R; Nkengfack, AE; Tsamo, E; Ali, MS

> <Institution>
University of Yaounde

> <Link to Ligand in BindingDB>
http://www.bindingdb.org/bind/chemsearch/marvin/MolStructure.jsp?monomerid=50349976

> <Link to Ligand-Target Pair in BindingDB>
http://www.bindingdb.org/jsp/dbsearch/PrimarySearch_ki.jsp?energyterm=kJ/mole&tag=pol&polymerid=2820&target=Enoyl-ACP+reductase&column=ki&startPg=0&Increment=50&submit=Search

> <Link to Ligand-Target Pair in BindingDB>
http://www.bindingdb.org/jsp/dbsearch/PrimarySearch_ki.jsp?energyterm=kJ/mole&tag=r21&monomerid=50349976&enzyme=Enoyl-ACP+reductase&column=ki&startPg=0&Increment=50&submit=Search

> <Ligand HET ID in PDB>


> <PDB ID(s) for Ligand-Target Complex>


> <PubChem CID of Ligand>
5316097

> <PubChem SID of Ligand>
136356662

> <ChEBI ID of Ligand>


> <ChEMBL ID of Ligand>


> <DrugBank ID of Ligand>


> <IUPHAR_GRAC ID of Ligand>


> <KEGG ID of Ligand>


> <ZINC ID of Ligand>
ZINC13408703

> <Number of Protein Chains in Target (bigger than 1 implies a multichain complex)>
1

> <BindingDB Target Chain Sequence>
MNKISQRLLFLFLHFYTTVCFIQNNTQKTFHNVLQNEQIRGKEKAFYRKEKRENIFIGNK
MKHVHNMNNTHNNNHYMEKEEQDASNINKIKEENKNEDICFIAGIGDTNGYGWGIAKELS
KRNVKIIFGIWPPVYNIFMKNYKNGKFDNDMIIDKDKKMNILDMLPFDASFDTANDIDEE
TKNNKRYNMLQNYTIEDVANLIHQKYGKINMLVHSLANAKEVQKDLLNTSRKGYLDALSK
SSYSLISLCKYFVNIMKPQSSIISLTYHASQKVVPGYGGGMSSAKAALESDTRVLAYHLG
RNYNIRINTISAGPLKSRAATAINKLNNTYENNTNQNKNRNRHDVHNIMNNSGEKEEKKI
SASQNYTFIDYAIEYSEKYAPLRQKLLSTDIGSVASFLLSRESRAITGQTIYVDNGLNIM
FLPDDIYRNENE

> <PDB ID(s) of Target Chain>
1NHG,1NHW,1NNU,1UH5,1V35,2FOI,2NQ8,3LSY,3LT0,3LT1,3LT2,3LT4

> <UniProt (SwissProt) Recommended Name of Target Chain>


> <UniProt (SwissProt) Entry Name of Target Chain>


> <UniProt (SwissProt) Primary ID of Target Chain>


> <UniProt (SwissProt) Secondary ID(s) of Target Chain>


> <UniProt (SwissProt) Alternative ID(s) of Target Chain>


> <UniProt (TrEMBL) Submitted Name of Target Chain>
Enoyl-ACP reductase

> <UniProt (TrEMBL) Entry Name of Target Chain>
Q9BJJ9_PLAFA

> <UniProt (TrEMBL) Primary ID of Target Chain>
Q9BJJ9

> <UniProt (TrEMBL) Secondary ID(s) of Target Chain>


> <UniProt (TrEMBL) Alternative ID(s) of Target Chain>


$$$$
BindingDB_50381284_mol_1

Vconf v2.0 Academic SN VC001-00000579
 41 43  0  0  0  0  0  0  0  0999 V2000
    4.6980    1.3620    0.5810 C   0  0  0  0  0  0  0  0  0  0  0
    4.5070   -0.0220    0.3690 C   0  0  0  0  0  0  0  0  0  0  0
    5.6000   -0.9120    0.4090 C   0  0  0  0  0  0  0  0  0  0  0
    5.9870    1.8750    0.8350 C   0  0  0  0  0  0  0  0  0  0  0
    7.0670    0.9790    0.8740 C   0  0  0  0  0  0  0  0  0  0  0
    6.8740   -0.3820    0.6640 C   0  0  0  0  0  0  0  0  0  0  0
    8.1170   -0.9820    0.7660 C   0  0  0  0  0  0  0  0  0  0  0
    9.0420    0.0330    1.0380 C   0  0  0  0  0  0  0  0  0  0  0
    8.3790    1.2210    1.0990 O   0  0  0  0  0  0  0  0  0  0  0
    3.6360    2.1950    0.5380 O   0  0  0  0  0  0  0  0  0  0  0
   10.4400   -0.1040    1.2280 C   0  0  0  0  0  0  0  0  0  0  0
   11.0920   -1.3540    1.1460 C   0  0  0  0  0  0  0  0  0  0  0
   12.4790   -1.4610    1.3450 C   0  0  0  0  0  0  0  0  0  0  0
   13.2530   -0.3170    1.6330 C   0  0  0  0  0  0  0  0  0  0  0
   12.6090    0.9360    1.7100 C   0  0  0  0  0  0  0  0  0  0  0
   11.2210    1.0370    1.5110 C   0  0  0  0  0  0  0  0  0  0  0
   13.3130    2.0580    1.9830 O   0  0  0  0  0  0  0  0  0  0  0
   13.0540   -2.6810    1.2530 O   0  0  0  0  0  0  0  0  0  0  0
   14.7150   -0.4410    1.8370 C   0  0  0  0  0  0  0  0  0  0  0
   15.0570   -1.1750    3.0370 C   0  0  0  0  0  0  0  0  0  0  0
   16.3200   -1.4690    3.3700 C   0  0  0  0  0  0  0  0  0  0  0
   16.5600   -2.2030    4.5890 C   0  0  0  0  0  0  0  0  0  0  0
   17.4290   -1.0810    2.5300 C   0  0  0  0  0  0  0  0  0  0  0
    3.5690   -0.3810    0.1860 H   0  0  0  0  0  0  0  0  0  0  0
    5.4650   -1.9120    0.2560 H   0  0  0  0  0  0  0  0  0  0  0
    6.1340    2.8720    0.9890 H   0  0  0  0  0  0  0  0  0  0  0
    8.3130   -1.9790    0.6630 H   0  0  0  0  0  0  0  0  0  0  0
    3.8500    3.1380    0.6960 H   0  0  0  0  0  0  0  0  0  0  0
   10.5640   -2.2030    0.9410 H   0  0  0  0  0  0  0  0  0  0  0
   10.7820    1.9570    1.5760 H   0  0  0  0  0  0  0  0  0  0  0
   12.7780    2.8780    2.0220 H   0  0  0  0  0  0  0  0  0  0  0
   14.0210   -2.6880    1.4090 H   0  0  0  0  0  0  0  0  0  0  0
   15.1430   -0.9460    0.9690 H   0  0  0  0  0  0  0  0  0  0  0
   15.1730    0.5470    1.9060 H   0  0  0  0  0  0  0  0  0  0  0
   14.3320   -1.4620    3.6530 H   0  0  0  0  0  0  0  0  0  0  0
   17.6260   -2.3650    4.7480 H   0  0  0  0  0  0  0  0  0  0  0
   16.1610   -1.6440    5.4380 H   0  0  0  0  0  0  0  0  0  0  0
   16.0630   -3.1730    4.5360 H   0  0  0  0  0  0  0  0  0  0  0
   18.3800   -1.3680    2.9790 H   0  0  0  0  0  0  0  0  0  0  0
   17.3410   -1.5680    1.5590 H   0  0  0  0  0  0  0  0  0  0  0
   17.4250    0.0010    2.3920 H   0  0  0  0  0  0  0  0  0  0  0
  1  2  2  0  0  0  0
  1  4  1  0  0  0  0
  1 10  1  0  0  0  0
  2  3  1  0  0  0  0
  2 24  1  0  0  0  0
  3  6  2  0  0  0  0
  3 25  1  0  0  0  0
  4  5  2  0  0  0  0
  4 26  1  0  0  0  0
  5  6  1  0  0  0  0
  5  9  1  0  0  0  0
  6  7  1  0  0  0  0
  7  8  2  0  0  0  0
  7 27  1  0  0  0  0
  8  9  1  0  0  0  0
  8 11  1  0  0  0  0
 10 28  1  0  0  0  0
 11 12  2  0  0  0  0
 11 16  1  0  0  0  0
 12 13  1  0  0  0  0
 12 29  1  0  0  0  0
 13 14  2  0  0  0  0
 13 18  1  0  0  0  0
 14 15  1  0  0  0  0
 14 19  1  0  0  0  0
 15 16  2  0  0  0  0
 15 17  1  0  0  0  0
 16 30  1  0  0  0  0
 17 31  1  0  0  0  0
 18 32  1  0  0  0  0
 19 20  1  0  0  0  0
 19 33  1  0  0  0  0
 19 34  1  0  0  0  0
 20 21  2  0  0  0  0
 20 35  1  0  0  0  0
 21 22  1  0  0  0  0
 21 23  1  0  0  0  0
 22 36  1  0  0  0  0
 22 37  1  0  0  0  0
 22 38  1  0  0  0  0
 23 39  1  0  0  0  0
 23 40  1  0  0  0  0
 23 41  1  0  0  0  0
M  END
> <From>
www.bindingDB.org

> <BindingDB Reactant_set_id>
50295462

> <Ligand InChI>
InChI=1S/C19H18O4/c1-11(2)3-6-15-16(21)7-13(8-17(15)22)18-9-12-4-5-14(20)10-19(12)23-18/h3-5,7-10,20-22H,6H2,1-2H3

> <Ligand InChI Key>
ZTGHWUWBQNCCOH-UHFFFAOYSA-N

> <BindingDB MonomerID>
50381284

> <BindingDB Ligand Name>
CHEMBL2018876

> <Target Name>
Enoyl-[acyl-carrier-protein] reductase [NADPH] FabI [9-251]

> <Target Source Organism According to Curator or DataSource>
Staphylococcus aureus

> <Ki (nM)>


> <IC50 (nM)>
 83800

> <Kd (nM)>


> <EC50 (nM)>


> <kon (M-1-s-1)>


> <koff (s-1)>


> <pH>


> <Temp C>


> <Curation/DataSource>
ChEMBL

> <Article DOI>
10.1016/j.ejmech.2014.11.047

> <BindingDB Entry DOI>
10.7270/Q2GF0W5F

> <PMID>
25461329

> <PubChem AID>


> <Patent Number>


> <Authors>
Naik, R; Harmalkar, DS; Xu, X; Jang, K; Lee, K

> <Institution>
Dongguk University-Seoul

> <Link to Ligand in BindingDB>
http://www.bindingdb.org/bind/chemsearch/marvin/MolStructure.jsp?monomerid=50381284

> <Link to Ligand-Target Pair in BindingDB>
http://www.bindingdb.org/jsp/dbsearch/PrimarySearch_ki.jsp?energyterm=kJ/mole&tag=pol&polymerid=50004708&target=Enoyl-%5Bacyl-carrier-protein%5D+reductase+%5BNADPH%5D+FabI+%5B9-251%5D&column=ki&startPg=0&Increment=50&submit=Search

> <Link to Ligand-Target Pair in BindingDB>
http://www.bindingdb.org/jsp/dbsearch/PrimarySearch_ki.jsp?energyterm=kJ/mole&tag=r21&monomerid=50381284&enzyme=Enoyl-%5Bacyl-carrier-protein%5D+reductase+%5BNADPH%5D+FabI+%5B9-251%5D&column=ki&startPg=0&Increment=50&submit=Search

> <Ligand HET ID in PDB>


> <PDB ID(s) for Ligand-Target Complex>


> <PubChem CID of Ligand>
155248

> <PubChem SID of Ligand>
160860367

> <ChEBI ID of Ligand>


> <ChEMBL ID of Ligand>
CHEMBL2018876

> <DrugBank ID of Ligand>


> <IUPHAR_GRAC ID of Ligand>


> <KEGG ID of Ligand>


> <ZINC ID of Ligand>
ZINC05158948

> <Number of Protein Chains in Target (bigger than 1 implies a multichain complex)>
1

> <BindingDB Target Chain Sequence>
YVIMGIANKRSIAFGVAKVLDQLGAKLVFTYRKERSRKELEKLLEQLNQPEAHLYQIDVQSDEEVINGFEQIGKDVGNIDGVYHSIAFANMEDLRGRFSETSREGFLLAQDISSYSLTIVAHEAKKLMPEGGSIVATTYLGGEFAVQNYNVMGVAKASLEANVKYLALDLGPDNIRVNAISAGPIRTLSAKGVGGFNTILKEIEERAPLKRNVDQVEVGKTAAYLLSDLSSGVTGENIHVDSG

> <PDB ID(s) of Target Chain>
3GNS,3GNT,3GR6,4ALI,4ALJ,4ALK,4ALL,4ALM,4ALN,4BNF,4BNG,4BNH,4BNI,4BNJ,4BNK,4BNL,4BNM,4BNN,4CUZ,4CV0,4CV1,4D41,4D42,4D43,4D44,4D45,4FS3,4NZ9,6TBB,6TBC,6YUR

> <UniProt (SwissProt) Recommended Name of Target Chain>
Enoyl-[acyl-carrier-protein] reductase [NADPH] FabI

> <UniProt (SwissProt) Entry Name of Target Chain>
FABI_STAAR

> <UniProt (SwissProt) Primary ID of Target Chain>
Q6GI75

> <UniProt (SwissProt) Secondary ID(s) of Target Chain>


> <UniProt (SwissProt) Alternative ID(s) of Target Chain>


> <UniProt (TrEMBL) Submitted Name of Target Chain>


> <UniProt (TrEMBL) Entry Name of Target Chain>


> <UniProt (TrEMBL) Primary ID of Target Chain>


> <UniProt (TrEMBL) Secondary ID(s) of Target Chain>


> <UniProt (TrEMBL) Alternative ID(s) of Target Chain>


$$$$
5

Vconf v2.0 Academic SN VC001-00000579
 29 31  0  0  0  0  0  0  0  0999 V2000
   -2.9750    3.0860    0.9230 C   0  0  0  0  0  0  0  0  0  0  0
   -4.2350    2.4710    0.8230 C   0  0  0  0  0  0  0  0  0  0  0
   -4.3420    1.0900    0.5550 C   0  0  0  0  0  0  0  0  0  0  0
   -3.1580    0.3370    0.3940 C   0  0  0  0  0  0  0  0  0  0  0
   -1.8990    0.9530    0.4930 C   0  0  0  0  0  0  0  0  0  0  0
   -1.7980    2.3370    0.7450 C   0  0  0  0  0  0  0  0  0  0  0
   -2.9010    4.4100    1.1860 O   0  0  0  0  0  0  0  0  0  0  0
   -0.6010    2.9920    0.8700 O   0  0  0  0  0  0  0  0  0  0  0
    0.5350    2.6840    0.1670 C   0  0  0  0  0  0  0  0  0  0  0
    1.7820    2.6620    0.8300 C   0  0  0  0  0  0  0  0  0  0  0
    0.4920    2.4390   -1.2220 C   0  0  0  0  0  0  0  0  0  0  0
    1.6670    2.1540   -1.9370 C   0  0  0  0  0  0  0  0  0  0  0
    2.9050    2.1190   -1.2700 C   0  0  0  0  0  0  0  0  0  0  0
    2.9600    2.3750    0.1120 C   0  0  0  0  0  0  0  0  0  0  0
    1.8910    2.9680    2.4930 Cl  0  0  0  0  0  0  0  0  0  0  0
    4.3210    1.7770   -2.1290 Cl  0  0  0  0  0  0  0  0  0  0  0
   -5.6030    0.4710    0.4520 C   0  0  0  0  0  0  0  0  0  0  0
   -6.7990    1.0540    0.5730 N   0  0  0  0  0  0  0  0  0  0  0
   -7.7150    0.1620    0.4120 N   0  0  0  0  0  0  0  0  0  0  0
   -7.1310   -0.9730    0.1930 N   0  0  0  0  0  0  0  0  0  0  0
   -5.8450   -0.8240    0.2100 N   0  0  0  0  0  0  0  0  0  0  0
   -5.0730    3.0410    0.9500 H   0  0  0  0  0  0  0  0  0  0  0
   -3.2040   -0.6660    0.2060 H   0  0  0  0  0  0  0  0  0  0  0
   -1.0560    0.3900    0.3820 H   0  0  0  0  0  0  0  0  0  0  0
   -1.9840    4.7530    1.2430 H   0  0  0  0  0  0  0  0  0  0  0
   -0.3990    2.4720   -1.7180 H   0  0  0  0  0  0  0  0  0  0  0
    1.6130    1.9750   -2.9410 H   0  0  0  0  0  0  0  0  0  0  0
    3.8600    2.3540    0.5970 H   0  0  0  0  0  0  0  0  0  0  0
   -6.9530    1.9950    0.7500 H   0  0  0  0  0  0  0  0  0  0  0
  1  2  2  0  0  0  0
  1  6  1  0  0  0  0
  1  7  1  0  0  0  0
  2  3  1  0  0  0  0
  2 22  1  0  0  0  0
  3  4  2  0  0  0  0
  3 17  1  0  0  0  0
  4  5  1  0  0  0  0
  4 23  1  0  0  0  0
  5  6  2  0  0  0  0
  5 24  1  0  0  0  0
  6  8  1  0  0  0  0
  7 25  1  0  0  0  0
  8  9  1  0  0  0  0
  9 10  2  0  0  0  0
  9 11  1  0  0  0  0
 10 14  1  0  0  0  0
 10 15  1  0  0  0  0
 11 12  2  0  0  0  0
 11 26  1  0  0  0  0
 12 13  1  0  0  0  0
 12 27  1  0  0  0  0
 13 14  2  0  0  0  0
 13 16  1  0  0  0  0
 14 28  1  0  0  0  0
 17 18  1  0  0  0  0
 17 21  2  0  0  0  0
 18 19  1  0  0  0  0
 18 29  1  0  0  0  0
 19 20  2  0  0  0  0
 20 21  1  0  0  0  0
M  END
> <From>
www.bindingDB.org

> <BindingDB Reactant_set_id>
46057

> <Ligand InChI>
InChI=1S/C13H8Cl2N4O2/c14-8-2-4-11(9(15)6-8)21-12-3-1-7(5-10(12)20)13-16-18-19-17-13/h1-6,20H,(H,16,17,18,19)

> <Ligand InChI Key>
ZULGIWAUSROECL-UHFFFAOYSA-N

> <BindingDB MonomerID>
25404

> <BindingDB Ligand Name>
2-(2,4-dichlorophenoxy)-5-(2H-1,2,3,4-tetrazol-5-yl)phenol::Triclosan derivative, 5

> <Target Name>
Enoyl-ACP reductase

> <Target Source Organism According to Curator or DataSource>
Plasmodium falciparum

> <Ki (nM)>


> <IC50 (nM)>
>100000

> <Kd (nM)>


> <EC50 (nM)>


> <kon (M-1-s-1)>


> <koff (s-1)>


> <pH>
7.9

> <Temp C>
25.00

> <Curation/DataSource>
Curated from the literature by BindingDB

> <Article DOI>
10.1074/jbc.M701813200

> <BindingDB Entry DOI>
10.7270/Q22V2DFD

> <PMID>
17567585

> <PubChem AID>
aid1798551

> <Patent Number>


> <Authors>
Freundlich, JS; Wang, F; Tsai, HC; Kuo, M; Shieh, HM; Anderson, JW; Nkrumah, LJ; Valderramos, JC; Yu, M; Kumar, TR; Valderramos, SG; Jacobs, WR; Schiehser, GA; Jacobus, DP; Fidock, DA; Sacchettini, JC

> <Institution>
Jacobus Pharmaceutical Company

> <Link to Ligand in BindingDB>
http://www.bindingdb.org/bind/chemsearch/marvin/MolStructure.jsp?monomerid=25404

> <Link to Ligand-Target Pair in BindingDB>
http://www.bindingdb.org/jsp/dbsearch/PrimarySearch_ki.jsp?energyterm=kJ/mole&tag=pol&polymerid=2820&target=Enoyl-ACP+reductase&column=ki&startPg=0&Increment=50&submit=Search

> <Link to Ligand-Target Pair in BindingDB>
http://www.bindingdb.org/jsp/dbsearch/PrimarySearch_ki.jsp?energyterm=kJ/mole&tag=r21&monomerid=25404&enzyme=Enoyl-ACP+reductase&column=ki&startPg=0&Increment=50&submit=Search

> <Ligand HET ID in PDB>


> <PDB ID(s) for Ligand-Target Complex>


> <PubChem CID of Ligand>
25023956

> <PubChem SID of Ligand>
56374543

> <ChEBI ID of Ligand>


> <ChEMBL ID of Ligand>


> <DrugBank ID of Ligand>


> <IUPHAR_GRAC ID of Ligand>


> <KEGG ID of Ligand>


> <ZINC ID of Ligand>
ZINC29059618

> <Number of Protein Chains in Target (bigger than 1 implies a multichain complex)>
1

> <BindingDB Target Chain Sequence>
MNKISQRLLFLFLHFYTTVCFIQNNTQKTFHNVLQNEQIRGKEKAFYRKEKRENIFIGNK
MKHVHNMNNTHNNNHYMEKEEQDASNINKIKEENKNEDICFIAGIGDTNGYGWGIAKELS
KRNVKIIFGIWPPVYNIFMKNYKNGKFDNDMIIDKDKKMNILDMLPFDASFDTANDIDEE
TKNNKRYNMLQNYTIEDVANLIHQKYGKINMLVHSLANAKEVQKDLLNTSRKGYLDALSK
SSYSLISLCKYFVNIMKPQSSIISLTYHASQKVVPGYGGGMSSAKAALESDTRVLAYHLG
RNYNIRINTISAGPLKSRAATAINKLNNTYENNTNQNKNRNRHDVHNIMNNSGEKEEKKI
SASQNYTFIDYAIEYSEKYAPLRQKLLSTDIGSVASFLLSRESRAITGQTIYVDNGLNIM
FLPDDIYRNENE

> <PDB ID(s) of Target Chain>
1NHG,1NHW,1NNU,1UH5,1V35,2FOI,2NQ8,3LSY,3LT0,3LT1,3LT2,3LT4

> <UniProt (SwissProt) Recommended Name of Target Chain>


> <UniProt (SwissProt) Entry Name of Target Chain>


> <UniProt (SwissProt) Primary ID of Target Chain>


> <UniProt (SwissProt) Secondary ID(s) of Target Chain>


> <UniProt (SwissProt) Alternative ID(s) of Target Chain>


> <UniProt (TrEMBL) Submitted Name of Target Chain>
Enoyl-ACP reductase

> <UniProt (TrEMBL) Entry Name of Target Chain>
Q9BJJ9_PLAFA

> <UniProt (TrEMBL) Primary ID of Target Chain>
Q9BJJ9

> <UniProt (TrEMBL) Secondary ID(s) of Target Chain>


> <UniProt (TrEMBL) Alternative ID(s) of Target Chain>


$$$$
7

Vconf v2.0 Academic SN VC001-00000579
 27 28  0  0  0  0  0  0  0  0999 V2000
   -3.0120    3.1290    0.9920 C   0  0  0  0  0  0  0  0  0  0  0
   -4.2640    2.4930    0.9410 C   0  0  0  0  0  0  0  0  0  0  0
   -4.3680    1.1250    0.6070 C   0  0  0  0  0  0  0  0  0  0  0
   -3.1820    0.4100    0.3310 C   0  0  0  0  0  0  0  0  0  0  0
   -1.9300    1.0460    0.3800 C   0  0  0  0  0  0  0  0  0  0  0
   -1.8350    2.4160    0.7010 C   0  0  0  0  0  0  0  0  0  0  0
   -2.9440    4.4380    1.3220 O   0  0  0  0  0  0  0  0  0  0  0
   -0.6460    3.0920    0.7880 O   0  0  0  0  0  0  0  0  0  0  0
    0.4710    2.8090    0.0460 C   0  0  0  0  0  0  0  0  0  0  0
    1.7340    2.7570    0.6760 C   0  0  0  0  0  0  0  0  0  0  0
    0.3890    2.6160   -1.3490 C   0  0  0  0  0  0  0  0  0  0  0
    1.5440    2.3510   -2.1040 C   0  0  0  0  0  0  0  0  0  0  0
    2.7980    2.2870   -1.4720 C   0  0  0  0  0  0  0  0  0  0  0
    2.8910    2.4920   -0.0830 C   0  0  0  0  0  0  0  0  0  0  0
    1.8880    3.0030    2.3460 Cl  0  0  0  0  0  0  0  0  0  0  0
    4.1900    1.9700   -2.3790 Cl  0  0  0  0  0  0  0  0  0  0  0
   -5.6040    0.5030    0.5580 C   0  0  0  0  0  0  0  0  0  0  0
   -5.7190   -0.6930    0.3360 O   0  0  0  0  0  0  0  0  0  0  0
   -6.7260    1.1760    0.7490 O   0  0  0  0  0  0  0  0  0  0  0
   -5.1030    3.0350    1.1500 H   0  0  0  0  0  0  0  0  0  0  0
   -3.2240   -0.5820    0.0920 H   0  0  0  0  0  0  0  0  0  0  0
   -1.0860    0.5050    0.1860 H   0  0  0  0  0  0  0  0  0  0  0
   -2.0310    4.7970    1.3380 H   0  0  0  0  0  0  0  0  0  0  0
   -0.5150    2.6710   -1.8190 H   0  0  0  0  0  0  0  0  0  0  0
    1.4620    2.2100   -3.1120 H   0  0  0  0  0  0  0  0  0  0  0
    3.8030    2.4500    0.3760 H   0  0  0  0  0  0  0  0  0  0  0
   -7.5300    0.6210    0.6880 H   0  0  0  0  0  0  0  0  0  0  0
  1  2  2  0  0  0  0
  1  6  1  0  0  0  0
  1  7  1  0  0  0  0
  2  3  1  0  0  0  0
  2 20  1  0  0  0  0
  3  4  2  0  0  0  0
  3 17  1  0  0  0  0
  4  5  1  0  0  0  0
  4 21  1  0  0  0  0
  5  6  2  0  0  0  0
  5 22  1  0  0  0  0
  6  8  1  0  0  0  0
  7 23  1  0  0  0  0
  8  9  1  0  0  0  0
  9 10  2  0  0  0  0
  9 11  1  0  0  0  0
 10 14  1  0  0  0  0
 10 15  1  0  0  0  0
 11 12  2  0  0  0  0
 11 24  1  0  0  0  0
 12 13  1  0  0  0  0
 12 25  1  0  0  0  0
 13 14  2  0  0  0  0
 13 16  1  0  0  0  0
 14 26  1  0  0  0  0
 17 18  2  0  0  0  0
 17 19  1  0  0  0  0
 19 27  1  0  0  0  0
M  END
> <From>
www.bindingDB.org

> <BindingDB Reactant_set_id>
46059

> <Ligand InChI>
InChI=1S/C13H8Cl2O4/c14-8-2-4-11(9(15)6-8)19-12-3-1-7(13(17)18)5-10(12)16/h1-6,16H,(H,17,18)

> <Ligand InChI Key>
KUJXLYCFJYCPHN-UHFFFAOYSA-N

> <BindingDB MonomerID>
25406

> <BindingDB Ligand Name>
4-(2,4-dichlorophenoxy)-3-hydroxybenzoic acid::CHEMBL240808::Triclosan derivative, 7

> <Target Name>
Enoyl-ACP reductase

> <Target Source Organism According to Curator or DataSource>
Plasmodium falciparum

> <Ki (nM)>


> <IC50 (nM)>
>100000

> <Kd (nM)>


> <EC50 (nM)>


> <kon (M-1-s-1)>


> <koff (s-1)>


> <pH>
7.9

> <Temp C>
25.00

> <Curation/DataSource>
Curated from the literature by BindingDB

> <Article DOI>
10.1074/jbc.M701813200

> <BindingDB Entry DOI>
10.7270/Q22V2DFD

> <PMID>
17567585

> <PubChem AID>
aid1798551

> <Patent Number>


> <Authors>
Freundlich, JS; Wang, F; Tsai, HC; Kuo, M; Shieh, HM; Anderson, JW; Nkrumah, LJ; Valderramos, JC; Yu, M; Kumar, TR; Valderramos, SG; Jacobs, WR; Schiehser, GA; Jacobus, DP; Fidock, DA; Sacchettini, JC

> <Institution>
Jacobus Pharmaceutical Company

> <Link to Ligand in BindingDB>
http://www.bindingdb.org/bind/chemsearch/marvin/MolStructure.jsp?monomerid=25406

> <Link to Ligand-Target Pair in BindingDB>
http://www.bindingdb.org/jsp/dbsearch/PrimarySearch_ki.jsp?energyterm=kJ/mole&tag=pol&polymerid=2820&target=Enoyl-ACP+reductase&column=ki&startPg=0&Increment=50&submit=Search

> <Link to Ligand-Target Pair in BindingDB>
http://www.bindingdb.org/jsp/dbsearch/PrimarySearch_ki.jsp?energyterm=kJ/mole&tag=r21&monomerid=25406&enzyme=Enoyl-ACP+reductase&column=ki&startPg=0&Increment=50&submit=Search

> <Ligand HET ID in PDB>


> <PDB ID(s) for Ligand-Target Complex>


> <PubChem CID of Ligand>
23656593

> <PubChem SID of Ligand>
56374545

> <ChEBI ID of Ligand>


> <ChEMBL ID of Ligand>
CHEMBL240808

> <DrugBank ID of Ligand>


> <IUPHAR_GRAC ID of Ligand>


> <KEGG ID of Ligand>


> <ZINC ID of Ligand>
ZINC28869369

> <Number of Protein Chains in Target (bigger than 1 implies a multichain complex)>
1

> <BindingDB Target Chain Sequence>
MNKISQRLLFLFLHFYTTVCFIQNNTQKTFHNVLQNEQIRGKEKAFYRKEKRENIFIGNK
MKHVHNMNNTHNNNHYMEKEEQDASNINKIKEENKNEDICFIAGIGDTNGYGWGIAKELS
KRNVKIIFGIWPPVYNIFMKNYKNGKFDNDMIIDKDKKMNILDMLPFDASFDTANDIDEE
TKNNKRYNMLQNYTIEDVANLIHQKYGKINMLVHSLANAKEVQKDLLNTSRKGYLDALSK
SSYSLISLCKYFVNIMKPQSSIISLTYHASQKVVPGYGGGMSSAKAALESDTRVLAYHLG
RNYNIRINTISAGPLKSRAATAINKLNNTYENNTNQNKNRNRHDVHNIMNNSGEKEEKKI
SASQNYTFIDYAIEYSEKYAPLRQKLLSTDIGSVASFLLSRESRAITGQTIYVDNGLNIM
FLPDDIYRNENE

> <PDB ID(s) of Target Chain>
1NHG,1NHW,1NNU,1UH5,1V35,2FOI,2NQ8,3LSY,3LT0,3LT1,3LT2,3LT4

> <UniProt (SwissProt) Recommended Name of Target Chain>


> <UniProt (SwissProt) Entry Name of Target Chain>


> <UniProt (SwissProt) Primary ID of Target Chain>


> <UniProt (SwissProt) Secondary ID(s) of Target Chain>


> <UniProt (SwissProt) Alternative ID(s) of Target Chain>


> <UniProt (TrEMBL) Submitted Name of Target Chain>
Enoyl-ACP reductase

> <UniProt (TrEMBL) Entry Name of Target Chain>
Q9BJJ9_PLAFA

> <UniProt (TrEMBL) Primary ID of Target Chain>
Q9BJJ9

> <UniProt (TrEMBL) Secondary ID(s) of Target Chain>


> <UniProt (TrEMBL) Alternative ID(s) of Target Chain>


$$$$
BindingDB_51108763_3D

Vconf v2.1
 42 44  0  0  0  0  0  0  0  0999 V2000
   21.9140  -23.0750    0.0240 C   0  0  2  0  0  0  0  0  0  0  0
   22.4460  -24.5150    0.0470 C   0  0  0  0  0  0  0  0  0  0  0
   23.8230  -24.3750    0.3660 N   0  0  0  0  0  0  0  0  0  0  0
   24.1810  -23.0750    0.8140 C   0  0  0  0  0  0  0  0  0  0  0
   22.8500  -22.3400    0.9900 C   0  0  0  0  0  0  0  0  0  0  0
   20.4930  -22.9650    0.3800 C   0  0  0  0  0  0  0  0  0  0  0
   24.7380  -25.3780    0.2560 C   0  0  0  0  0  0  0  0  0  0  0
   25.9350  -25.1440    0.5380 O   0  0  0  0  0  0  0  0  0  0  0
   24.3950  -26.7360   -0.2030 C   0  0  0  0  0  0  0  0  0  0  0
   23.5370  -27.4710    0.7510 C   0  0  0  0  0  0  0  0  0  0  0
   22.2560  -27.9150    0.3670 C   0  0  0  0  0  0  0  0  0  0  0
   21.4400  -28.6120    1.2740 C   0  0  0  0  0  0  0  0  0  0  0
   21.8900  -28.8780    2.5850 C   0  0  0  0  0  0  0  0  0  0  0
   23.1810  -28.4600    2.9580 C   0  0  0  0  0  0  0  0  0  0  0
   23.9970  -27.7620    2.0520 C   0  0  0  0  0  0  0  0  0  0  0
   20.0060  -23.4040    1.5520 N   0  0  0  0  0  0  0  0  0  0  0
   18.6870  -23.2020    1.6480 C   0  0  0  0  0  0  0  0  0  0  0
   18.1550  -22.5920    0.5230 C   0  0  0  0  0  0  0  0  0  0  0
   19.3330  -22.2620   -0.6990 S   0  0  0  0  0  0  0  0  0  0  0
   21.1590  -29.5610    3.5060 N   0  0  0  0  0  0  0  0  0  0  0
   19.8150  -29.5030    3.6810 C   0  0  0  0  0  0  0  0  0  0  0
   19.0680  -28.7770    2.9870 O   0  0  0  0  0  0  0  0  0  0  0
   19.2180  -30.3070    4.7470 C   0  0  0  0  0  0  0  0  0  0  0
   22.0630  -22.6660   -0.9760 H   0  0  0  0  0  0  0  0  0  0  0
   21.9500  -25.1080    0.8180 H   0  0  0  0  0  0  0  0  0  0  0
   22.3020  -24.9740   -0.9330 H   0  0  0  0  0  0  0  0  0  0  0
   24.7110  -23.1140    1.7670 H   0  0  0  0  0  0  0  0  0  0  0
   24.7970  -22.5770    0.0630 H   0  0  0  0  0  0  0  0  0  0  0
   22.9410  -21.2840    0.7350 H   0  0  0  0  0  0  0  0  0  0  0
   22.5110  -22.4530    2.0220 H   0  0  0  0  0  0  0  0  0  0  0
   23.9110  -26.6550   -1.1780 H   0  0  0  0  0  0  0  0  0  0  0
   25.3160  -27.3060   -0.3390 H   0  0  0  0  0  0  0  0  0  0  0
   21.9110  -27.7270   -0.5750 H   0  0  0  0  0  0  0  0  0  0  0
   20.5180  -28.9280    0.9720 H   0  0  0  0  0  0  0  0  0  0  0
   23.5310  -28.6590    3.8960 H   0  0  0  0  0  0  0  0  0  0  0
   24.9280  -27.4610    2.3440 H   0  0  0  0  0  0  0  0  0  0  0
   18.1330  -23.4670    2.4630 H   0  0  0  0  0  0  0  0  0  0  0
   17.1660  -22.3620    0.4240 H   0  0  0  0  0  0  0  0  0  0  0
   21.6530  -30.1130    4.1310 H   0  0  0  0  0  0  0  0  0  0  0
   18.1380  -30.1540    4.7710 H   0  0  0  0  0  0  0  0  0  0  0
   19.4260  -31.3620    4.5670 H   0  0  0  0  0  0  0  0  0  0  0
   19.6430  -30.0130    5.7070 H   0  0  0  0  0  0  0  0  0  0  0
  1  2  1  0  0  0  0
  1  5  1  0  0  0  0
  1  6  1  0  0  0  0
  1 24  1  0  0  0  0
  2  3  1  0  0  0  0
  2 25  1  0  0  0  0
  2 26  1  0  0  0  0
  3  4  1  0  0  0  0
  3  7  1  0  0  0  0
  4  5  1  0  0  0  0
  4 27  1  0  0  0  0
  4 28  1  0  0  0  0
  5 29  1  0  0  0  0
  5 30  1  0  0  0  0
  6 16  2  0  0  0  0
  6 19  1  0  0  0  0
  7  8  2  0  0  0  0
  7  9  1  0  0  0  0
  9 10  1  0  0  0  0
  9 31  1  0  0  0  0
  9 32  1  0  0  0  0
 10 11  2  0  0  0  0
 10 15  1  0  0  0  0
 11 12  1  0  0  0  0
 11 33  1  0  0  0  0
 12 13  2  0  0  0  0
 12 34  1  0  0  0  0
 13 14  1  0  0  0  0
 13 20  1  0  0  0  0
 14 15  2  0  0  0  0
 14 35  1  0  0  0  0
 15 36  1  0  0  0  0
 16 17  1  0  0  0  0
 17 18  2  0  0  0  0
 17 37  1  0  0  0  0
 18 19  1  0  0  0  0
 18 38  1  0  0  0  0
 20 21  1  0  0  0  0
 20 39  1  0  0  0  0
 21 22  2  0  0  0  0
 21 23  1  0  0  0  0
 23 40  1  0  0  0  0
 23 41  1  0  0  0  0
 23 42  1  0  0  0  0
M  END
> <From>
www.bindingDB.org

> <BindingDB Reactant_set_id>
51108763

> <Ligand InChI>
InChI=1S/C17H19N3O2S/c1-12(21)19-15-4-2-13(3-5-15)10-16(22)20-8-6-14(11-20)17-18-7-9-23-17/h2-5,7,9,14H,6,8,10-11H2,1H3,(H,19,21)

> <Ligand InChI Key>
XDTZVOPGBUXXID-UHFFFAOYSA-N

> <BindingDB MonomerID>
50452480

> <BindingDB Ligand Name>
CHEMBL4206150

> <Target Name>
Enoyl-[acyl-carrier-protein] reductase [NADPH] FabI [9-251]

> <Target Source Organism According to Curator or DataSource>
Staphylococcus aureus

> <Ki (nM)>


> <IC50 (nM)>
>100000

> <Kd (nM)>


> <EC50 (nM)>


> <kon (M-1-s-1)>


> <koff (s-1)>


> <pH>


> <Temp C>


> <Curation/DataSource>
ChEMBL

> <Article DOI>
10.1016/j.bmc.2017.11.018

> <BindingDB Entry DOI>
10.7270/Q2QF8WF7

> <PMID>
29162308

> <PubChem AID>


> <Patent Number>


> <Authors>
Kwon, J; Mistry, T; Ren, J; Johnson, ME; Mehboob, S

> <Institution>
Novalex Therapeutics

> <Link to Ligand in BindingDB>
http://www.bindingdb.org/bind/chemsearch/marvin/MolStructure.jsp?monomerid=50452480

> <Link to Ligand-Target Pair in BindingDB>
http://www.bindingdb.org/jsp/dbsearch/PrimarySearch_ki.jsp?energyterm=kJ/mole&tag=pol&polymerid=50004708&target=Enoyl-%5Bacyl-carrier-protein%5D+reductase+%5BNADPH%5D+FabI+%5B9-251%5D&column=ki&startPg=0&Increment=50&submit=Search

> <Link to Ligand-Target Pair in BindingDB>
http://www.bindingdb.org/jsp/dbsearch/PrimarySearch_ki.jsp?energyterm=kJ/mole&tag=r21&monomerid=50452480&enzyme=Enoyl-%5Bacyl-carrier-protein%5D+reductase+%5BNADPH%5D+FabI+%5B9-251%5D&column=ki&startPg=0&Increment=50&submit=Search

> <Ligand HET ID in PDB>


> <PDB ID(s) for Ligand-Target Complex>


> <PubChem CID of Ligand>
122243076

> <PubChem SID of Ligand>
433921346

> <ChEBI ID of Ligand>


> <ChEMBL ID of Ligand>


> <DrugBank ID of Ligand>


> <IUPHAR_GRAC ID of Ligand>


> <KEGG ID of Ligand>


> <ZINC ID of Ligand>


> <Number of Protein Chains in Target (bigger than 1 implies a multichain complex)>
1

> <BindingDB Target Chain Sequence>
YVIMGIANKRSIAFGVAKVLDQLGAKLVFTYRKERSRKELEKLLEQLNQPEAHLYQIDVQSDEEVINGFEQIGKDVGNIDGVYHSIAFANMEDLRGRFSETSREGFLLAQDISSYSLTIVAHEAKKLMPEGGSIVATTYLGGEFAVQNYNVMGVAKASLEANVKYLALDLGPDNIRVNAISAGPIRTLSAKGVGGFNTILKEIEERAPLKRNVDQVEVGKTAAYLLSDLSSGVTGENIHVDSG

> <PDB ID(s) of Target Chain>
3GNS,3GNT,3GR6,4ALI,4ALJ,4ALK,4ALL,4ALM,4ALN,4BNF,4BNG,4BNH,4BNI,4BNJ,4BNK,4BNL,4BNM,4BNN,4CUZ,4CV0,4CV1,4D41,4D42,4D43,4D44,4D45,4FS3,4NZ9,6TBB,6TBC,6YUR

> <UniProt (SwissProt) Recommended Name of Target Chain>
Enoyl-[acyl-carrier-protein] reductase [NADPH] FabI

> <UniProt (SwissProt) Entry Name of Target Chain>
FABI_STAAR

> <UniProt (SwissProt) Primary ID of Target Chain>
Q6GI75

> <UniProt (SwissProt) Secondary ID(s) of Target Chain>


> <UniProt (SwissProt) Alternative ID(s) of Target Chain>


> <UniProt (TrEMBL) Submitted Name of Target Chain>


> <UniProt (TrEMBL) Entry Name of Target Chain>


> <UniProt (TrEMBL) Primary ID of Target Chain>


> <UniProt (TrEMBL) Secondary ID(s) of Target Chain>


> <UniProt (TrEMBL) Alternative ID(s) of Target Chain>


$$$$
BindingDB_50452500_mol_1

Vconf v2.0 Academic SN VC001-00000579
 52 54  0  0  0  0  0  0  0  0999 V2000
    2.8730   -6.1830    0.0780 N   0  0  0  0  0  0  0  0  0  0  0
    1.7190   -5.3810    1.9530 N   0  0  0  0  0  0  0  0  0  0  0
    3.8360   -4.4140    1.3620 C   0  0  0  0  0  0  0  0  0  0  0
    2.7020   -4.4840    2.2010 C   0  0  0  0  0  0  0  0  0  0  0
    3.8860   -5.3060    0.2790 C   0  0  0  0  0  0  0  0  0  0  0
    1.7980   -6.2270    0.9000 C   0  0  0  0  0  0  0  0  0  0  0
    5.9560    0.7120   -0.6720 C   0  0  0  0  0  0  0  0  0  0  0
    6.8320    0.9600    0.4260 C   0  0  0  0  0  0  0  0  0  0  0
    4.8030   -3.5010    1.6370 N   0  0  0  0  0  0  0  0  0  0  0
    5.9890    1.4700   -1.7980 N   0  0  0  0  0  0  0  0  0  0  0
    2.6260   -3.6330    3.2530 N   0  0  0  0  0  0  0  0  0  0  0
    5.2420    2.4220   -3.7810 C   0  0  0  0  0  0  0  0  0  0  0
    5.1400    1.2670   -2.9250 C   0  0  1  0  0  0  0  0  0  0  0
    6.8080    0.1900    1.6260 C   0  0  0  0  0  0  0  0  0  0  0
    5.9200   -0.8330    1.7790 N   0  0  0  0  0  0  0  0  0  0  0
    4.7240   -2.6470    2.6910 C   0  0  0  0  0  0  0  0  0  0  0
    4.9260   -1.5250   -5.5210 C   0  0  0  0  0  0  0  0  0  0  0
    5.1090   -0.2100   -0.6400 O   0  0  0  0  0  0  0  0  0  0  0
    4.2530    3.0820   -4.0570 O   0  0  0  0  0  0  0  0  0  0  0
    4.1660   -2.4780   -5.5430 O   0  0  0  0  0  0  0  0  0  0  0
    4.9240   -5.3050   -0.5680 N   0  0  0  0  0  0  0  0  0  0  0
    3.5930   -2.7210    3.5260 C   0  0  0  0  0  0  0  0  0  0  0
    0.8170   -7.1040    0.6700 N   0  0  0  0  0  0  0  0  0  0  0
    5.5400   -0.0130   -3.6920 C   0  0  0  0  0  0  0  0  0  0  0
    5.8020   -1.6750    2.9200 C   0  0  0  0  0  0  0  0  0  0  0
    4.5630   -0.3110   -4.8450 C   0  0  0  0  0  0  0  0  0  0  0
    6.4080    2.7890   -4.2800 O   0  0  0  0  0  0  0  0  0  0  0
    6.0860   -1.6170   -6.1420 O   0  0  0  0  0  0  0  0  0  0  0
    7.7730    2.0150    0.3260 C   0  0  0  0  0  0  0  0  0  0  0
    7.7130    0.4940    2.6680 C   0  0  0  0  0  0  0  0  0  0  0
    8.6630    2.3060    1.3700 C   0  0  0  0  0  0  0  0  0  0  0
    8.6340    1.5440    2.5440 C   0  0  0  0  0  0  0  0  0  0  0
    6.6110    2.2120   -1.8360 H   0  0  0  0  0  0  0  0  0  0  0
    4.1060    1.1710   -2.5850 H   0  0  0  0  0  0  0  0  0  0  0
    5.3140   -1.0150    1.0450 H   0  0  0  0  0  0  0  0  0  0  0
    5.6530   -4.6790   -0.4350 H   0  0  0  0  0  0  0  0  0  0  0
    4.9430   -5.9270   -1.3110 H   0  0  0  0  0  0  0  0  0  0  0
    3.4960   -2.0960    4.3270 H   0  0  0  0  0  0  0  0  0  0  0
    0.0480   -7.1330    1.2600 H   0  0  0  0  0  0  0  0  0  0  0
    0.8760   -7.7070   -0.0860 H   0  0  0  0  0  0  0  0  0  0  0
    6.5500    0.1010   -4.0890 H   0  0  0  0  0  0  0  0  0  0  0
    5.5300   -0.8610   -3.0060 H   0  0  0  0  0  0  0  0  0  0  0
    5.5870   -1.0700    3.8030 H   0  0  0  0  0  0  0  0  0  0  0
    6.7350   -2.2190    3.0760 H   0  0  0  0  0  0  0  0  0  0  0
    3.5530   -0.4050   -4.4420 H   0  0  0  0  0  0  0  0  0  0  0
    4.5810    0.5070   -5.5660 H   0  0  0  0  0  0  0  0  0  0  0
    6.3570    3.5850   -4.8490 H   0  0  0  0  0  0  0  0  0  0  0
    6.2300   -2.4840   -6.5750 H   0  0  0  0  0  0  0  0  0  0  0
    7.8250    2.5900   -0.5150 H   0  0  0  0  0  0  0  0  0  0  0
    7.7080   -0.0490    3.5320 H   0  0  0  0  0  0  0  0  0  0  0
    9.3310    3.0710    1.2740 H   0  0  0  0  0  0  0  0  0  0  0
    9.2800    1.7520    3.3060 H   0  0  0  0  0  0  0  0  0  0  0
  1  5  1  0  0  0  0
  1  6  2  0  0  0  0
  2  4  2  0  0  0  0
  2  6  1  0  0  0  0
  3  4  1  0  0  0  0
  3  5  2  0  0  0  0
  3  9  1  0  0  0  0
  4 11  1  0  0  0  0
  5 21  1  0  0  0  0
  6 23  1  0  0  0  0
  7  8  1  0  0  0  0
  7 10  1  0  0  0  0
  7 18  2  0  0  0  0
  8 14  2  0  0  0  0
  8 29  1  0  0  0  0
  9 16  2  0  0  0  0
 10 13  1  0  0  0  0
 10 33  1  0  0  0  0
 11 22  2  0  0  0  0
 12 13  1  0  0  0  0
 12 19  2  0  0  0  0
 12 27  1  0  0  0  0
 13 24  1  0  0  0  0
 13 34  1  0  0  0  0
 14 15  1  0  0  0  0
 14 30  1  0  0  0  0
 15 25  1  0  0  0  0
 15 35  1  0  0  0  0
 16 22  1  0  0  0  0
 16 25  1  0  0  0  0
 17 20  2  0  0  0  0
 17 26  1  0  0  0  0
 17 28  1  0  0  0  0
 21 36  1  0  0  0  0
 21 37  1  0  0  0  0
 22 38  1  0  0  0  0
 23 39  1  0  0  0  0
 23 40  1  0  0  0  0
 24 26  1  0  0  0  0
 24 41  1  0  0  0  0
 24 42  1  0  0  0  0
 25 43  1  0  0  0  0
 25 44  1  0  0  0  0
 26 45  1  0  0  0  0
 26 46  1  0  0  0  0
 27 47  1  0  0  0  0
 28 48  1  0  0  0  0
 29 31  2  0  0  0  0
 29 49  1  0  0  0  0
 30 32  2  0  0  0  0
 30 50  1  0  0  0  0
 31 32  1  0  0  0  0
 31 51  1  0  0  0  0
 32 52  1  0  0  0  0
M  END
> <From>
www.bindingDB.org

> <BindingDB Reactant_set_id>
51108773

> <Ligand InChI>
InChI=1S/C22H24N2O3/c1-16(25)23-19-10-7-17(8-11-19)9-12-22(26)24-14-13-18(15-24)20-5-3-4-6-21(20)27-2/h3-12,18H,13-15H2,1-2H3,(H,23,25)/b12-9+

> <Ligand InChI Key>
RNAZYXXOZJZLCE-FMIVXFBMSA-N

> <BindingDB MonomerID>
50452500

> <BindingDB Ligand Name>
CHEMBL4213757

> <Target Name>
Enoyl-[acyl-carrier-protein] reductase [NADPH] FabI [9-251]

> <Target Source Organism According to Curator or DataSource>
Staphylococcus aureus

> <Ki (nM)>


> <IC50 (nM)>
>100000

> <Kd (nM)>


> <EC50 (nM)>


> <kon (M-1-s-1)>


> <koff (s-1)>


> <pH>


> <Temp C>


> <Curation/DataSource>
ChEMBL

> <Article DOI>
10.1016/j.bmc.2017.11.018

> <BindingDB Entry DOI>
10.7270/Q2QF8WF7

> <PMID>
29162308

> <PubChem AID>


> <Patent Number>


> <Authors>
Kwon, J; Mistry, T; Ren, J; Johnson, ME; Mehboob, S

> <Institution>
Novalex Therapeutics

> <Link to Ligand in BindingDB>
http://www.bindingdb.org/bind/chemsearch/marvin/MolStructure.jsp?monomerid=50452500

> <Link to Ligand-Target Pair in BindingDB>
http://www.bindingdb.org/jsp/dbsearch/PrimarySearch_ki.jsp?energyterm=kJ/mole&tag=pol&polymerid=50004708&target=Enoyl-%5Bacyl-carrier-protein%5D+reductase+%5BNADPH%5D+FabI+%5B9-251%5D&column=ki&startPg=0&Increment=50&submit=Search

> <Link to Ligand-Target Pair in BindingDB>
http://www.bindingdb.org/jsp/dbsearch/PrimarySearch_ki.jsp?energyterm=kJ/mole&tag=r21&monomerid=50452500&enzyme=Enoyl-%5Bacyl-carrier-protein%5D+reductase+%5BNADPH%5D+FabI+%5B9-251%5D&column=ki&startPg=0&Increment=50&submit=Search

> <Ligand HET ID in PDB>


> <PDB ID(s) for Ligand-Target Complex>


> <PubChem CID of Ligand>
119099082

> <PubChem SID of Ligand>
433921356

> <ChEBI ID of Ligand>


> <ChEMBL ID of Ligand>


> <DrugBank ID of Ligand>


> <IUPHAR_GRAC ID of Ligand>


> <KEGG ID of Ligand>


> <ZINC ID of Ligand>


> <Number of Protein Chains in Target (bigger than 1 implies a multichain complex)>
1

> <BindingDB Target Chain Sequence>
YVIMGIANKRSIAFGVAKVLDQLGAKLVFTYRKERSRKELEKLLEQLNQPEAHLYQIDVQSDEEVINGFEQIGKDVGNIDGVYHSIAFANMEDLRGRFSETSREGFLLAQDISSYSLTIVAHEAKKLMPEGGSIVATTYLGGEFAVQNYNVMGVAKASLEANVKYLALDLGPDNIRVNAISAGPIRTLSAKGVGGFNTILKEIEERAPLKRNVDQVEVGKTAAYLLSDLSSGVTGENIHVDSG

> <PDB ID(s) of Target Chain>
3GNS,3GNT,3GR6,4ALI,4ALJ,4ALK,4ALL,4ALM,4ALN,4BNF,4BNG,4BNH,4BNI,4BNJ,4BNK,4BNL,4BNM,4BNN,4CUZ,4CV0,4CV1,4D41,4D42,4D43,4D44,4D45,4FS3,4NZ9,6TBB,6TBC,6YUR

> <UniProt (SwissProt) Recommended Name of Target Chain>
Enoyl-[acyl-carrier-protein] reductase [NADPH] FabI

> <UniProt (SwissProt) Entry Name of Target Chain>
FABI_STAAR

> <UniProt (SwissProt) Primary ID of Target Chain>
Q6GI75

> <UniProt (SwissProt) Secondary ID(s) of Target Chain>


> <UniProt (SwissProt) Alternative ID(s) of Target Chain>


> <UniProt (TrEMBL) Submitted Name of Target Chain>


> <UniProt (TrEMBL) Entry Name of Target Chain>


> <UniProt (TrEMBL) Primary ID of Target Chain>


> <UniProt (TrEMBL) Secondary ID(s) of Target Chain>


> <UniProt (TrEMBL) Alternative ID(s) of Target Chain>


$$$$
BindingDB_50452503_mol_1

Vconf v2.0 Academic SN VC001-00000579
 29 30  0  0  0  0  0  0  0  0999 V2000
    3.8570   -2.7870    0.5900 C   0  0  0  0  0  0  0  0  0  0  0
    3.9440   -1.3800    0.5860 C   0  0  0  0  0  0  0  0  0  0  0
    2.6370   -3.3730    0.6350 N   0  0  0  0  0  0  0  0  0  0  0
    2.7310   -0.6630    0.6270 C   0  0  0  0  0  0  0  0  0  0  0
    1.5460   -1.3190    0.6690 N   0  0  0  0  0  0  0  0  0  0  0
    1.4860   -2.6700    0.6740 C   0  0  0  0  0  0  0  0  0  0  0
    5.0880   -0.7650    0.5450 C   0  0  0  0  0  0  0  0  0  0  0
    4.9480   -3.5940    0.5460 N   0  0  0  0  0  0  0  0  0  0  0
    6.1020   -0.2300    0.5090 N   0  0  0  0  0  0  0  0  0  0  0
    2.7060    0.6890    0.6240 O   0  0  0  0  0  0  0  0  0  0  0
    6.3720   -6.5010   -0.6090 N   0  0  0  0  0  0  0  0  0  0  0
    4.8180   -5.0120    0.5370 C   0  0  0  0  0  0  0  0  0  0  0
    6.1090   -5.7070    0.4610 C   0  0  0  0  0  0  0  0  0  0  0
    0.2190   -3.3980    0.7160 C   0  0  0  0  0  0  0  0  0  0  0
    7.5160   -7.2160   -0.7390 C   0  0  0  0  0  0  0  0  0  0  0
    7.0560   -5.6150    1.4970 C   0  0  0  0  0  0  0  0  0  0  0
    8.4890   -7.1560    0.2700 C   0  0  0  0  0  0  0  0  0  0  0
    8.2500   -6.3480    1.3940 C   0  0  0  0  0  0  0  0  0  0  0
    5.8350   -3.1970    0.5070 H   0  0  0  0  0  0  0  0  0  0  0
    1.8050    1.0740    0.6540 H   0  0  0  0  0  0  0  0  0  0  0
    4.3000   -5.3380    1.4410 H   0  0  0  0  0  0  0  0  0  0  0
    4.2170   -5.3040   -0.3260 H   0  0  0  0  0  0  0  0  0  0  0
   -0.6180   -2.7010    0.7170 H   0  0  0  0  0  0  0  0  0  0  0
    0.1490   -4.0480   -0.1580 H   0  0  0  0  0  0  0  0  0  0  0
    0.1840   -4.0080    1.6200 H   0  0  0  0  0  0  0  0  0  0  0
    7.6630   -7.8000   -1.5630 H   0  0  0  0  0  0  0  0  0  0  0
    6.8720   -5.0370    2.3180 H   0  0  0  0  0  0  0  0  0  0  0
    9.3510   -7.6950    0.1910 H   0  0  0  0  0  0  0  0  0  0  0
    8.9430   -6.2980    2.1410 H   0  0  0  0  0  0  0  0  0  0  0
  1  2  1  0  0  0  0
  1  3  2  0  0  0  0
  1  8  1  0  0  0  0
  2  4  2  0  0  0  0
  2  7  1  0  0  0  0
  3  6  1  0  0  0  0
  4  5  1  0  0  0  0
  4 10  1  0  0  0  0
  5  6  2  0  0  0  0
  6 14  1  0  0  0  0
  7  9  3  0  0  0  0
  8 12  1  0  0  0  0
  8 19  1  0  0  0  0
 10 20  1  0  0  0  0
 11 13  1  0  0  0  0
 11 15  2  0  0  0  0
 12 13  1  0  0  0  0
 12 21  1  0  0  0  0
 12 22  1  0  0  0  0
 13 16  2  0  0  0  0
 14 23  1  0  0  0  0
 14 24  1  0  0  0  0
 14 25  1  0  0  0  0
 15 17  1  0  0  0  0
 15 26  1  0  0  0  0
 16 18  1  0  0  0  0
 16 27  1  0  0  0  0
 17 18  2  0  0  0  0
 17 28  1  0  0  0  0
 18 29  1  0  0  0  0
M  END
> <From>
www.bindingDB.org

> <BindingDB Reactant_set_id>
51108777

> <Ligand InChI>
InChI=1S/C22H25NO5S/c1-15(2)29(25,26)19-6-3-16(4-7-19)11-22(24)23-10-9-18(13-23)17-5-8-20-21(12-17)28-14-27-20/h3-8,12,15,18H,9-11,13-14H2,1-2H3

> <Ligand InChI Key>
FNWIGZYZIBMZEK-UHFFFAOYSA-N

> <BindingDB MonomerID>
50452503

> <BindingDB Ligand Name>
CHEMBL4204726

> <Target Name>
Enoyl-[acyl-carrier-protein] reductase [NADPH] FabI [9-251]

> <Target Source Organism According to Curator or DataSource>
Staphylococcus aureus

> <Ki (nM)>


> <IC50 (nM)>
>100000

> <Kd (nM)>


> <EC50 (nM)>


> <kon (M-1-s-1)>


> <koff (s-1)>


> <pH>


> <Temp C>


> <Curation/DataSource>
ChEMBL

> <Article DOI>
10.1016/j.bmc.2017.11.018

> <BindingDB Entry DOI>
10.7270/Q2QF8WF7

> <PMID>
29162308

> <PubChem AID>


> <Patent Number>


> <Authors>
Kwon, J; Mistry, T; Ren, J; Johnson, ME; Mehboob, S

> <Institution>
Novalex Therapeutics

> <Link to Ligand in BindingDB>
http://www.bindingdb.org/bind/chemsearch/marvin/MolStructure.jsp?monomerid=50452503

> <Link to Ligand-Target Pair in BindingDB>
http://www.bindingdb.org/jsp/dbsearch/PrimarySearch_ki.jsp?energyterm=kJ/mole&tag=pol&polymerid=50004708&target=Enoyl-%5Bacyl-carrier-protein%5D+reductase+%5BNADPH%5D+FabI+%5B9-251%5D&column=ki&startPg=0&Increment=50&submit=Search

> <Link to Ligand-Target Pair in BindingDB>
http://www.bindingdb.org/jsp/dbsearch/PrimarySearch_ki.jsp?energyterm=kJ/mole&tag=r21&monomerid=50452503&enzyme=Enoyl-%5Bacyl-carrier-protein%5D+reductase+%5BNADPH%5D+FabI+%5B9-251%5D&column=ki&startPg=0&Increment=50&submit=Search

> <Ligand HET ID in PDB>


> <PDB ID(s) for Ligand-Target Complex>


> <PubChem CID of Ligand>
92124189

> <PubChem SID of Ligand>
433921359

> <ChEBI ID of Ligand>


> <ChEMBL ID of Ligand>


> <DrugBank ID of Ligand>


> <IUPHAR_GRAC ID of Ligand>


> <KEGG ID of Ligand>


> <ZINC ID of Ligand>


> <Number of Protein Chains in Target (bigger than 1 implies a multichain complex)>
1

> <BindingDB Target Chain Sequence>
YVIMGIANKRSIAFGVAKVLDQLGAKLVFTYRKERSRKELEKLLEQLNQPEAHLYQIDVQSDEEVINGFEQIGKDVGNIDGVYHSIAFANMEDLRGRFSETSREGFLLAQDISSYSLTIVAHEAKKLMPEGGSIVATTYLGGEFAVQNYNVMGVAKASLEANVKYLALDLGPDNIRVNAISAGPIRTLSAKGVGGFNTILKEIEERAPLKRNVDQVEVGKTAAYLLSDLSSGVTGENIHVDSG

> <PDB ID(s) of Target Chain>
3GNS,3GNT,3GR6,4ALI,4ALJ,4ALK,4ALL,4ALM,4ALN,4BNF,4BNG,4BNH,4BNI,4BNJ,4BNK,4BNL,4BNM,4BNN,4CUZ,4CV0,4CV1,4D41,4D42,4D43,4D44,4D45,4FS3,4NZ9,6TBB,6TBC,6YUR

> <UniProt (SwissProt) Recommended Name of Target Chain>
Enoyl-[acyl-carrier-protein] reductase [NADPH] FabI

> <UniProt (SwissProt) Entry Name of Target Chain>
FABI_STAAR

> <UniProt (SwissProt) Primary ID of Target Chain>
Q6GI75

> <UniProt (SwissProt) Secondary ID(s) of Target Chain>


> <UniProt (SwissProt) Alternative ID(s) of Target Chain>


> <UniProt (TrEMBL) Submitted Name of Target Chain>


> <UniProt (TrEMBL) Entry Name of Target Chain>


> <UniProt (TrEMBL) Primary ID of Target Chain>


> <UniProt (TrEMBL) Secondary ID(s) of Target Chain>


> <UniProt (TrEMBL) Alternative ID(s) of Target Chain>


$$$$
BindingDB_50452504_mol_1

Vconf v2.0 Academic SN VC001-00000579
 32 33  0  0  0  0  0  0  0  0999 V2000
    3.8620   -2.8000    0.5990 C   0  0  0  0  0  0  0  0  0  0  0
    3.9530   -1.3940    0.5880 C   0  0  0  0  0  0  0  0  0  0  0
    2.6430   -3.3840    0.6520 N   0  0  0  0  0  0  0  0  0  0  0
    2.7430   -0.6750    0.6270 C   0  0  0  0  0  0  0  0  0  0  0
    1.5560   -1.3280    0.6670 N   0  0  0  0  0  0  0  0  0  0  0
    1.4920   -2.6800    0.6800 C   0  0  0  0  0  0  0  0  0  0  0
    5.1020   -0.7860    0.5480 C   0  0  0  0  0  0  0  0  0  0  0
    4.9530   -3.6060    0.5510 N   0  0  0  0  0  0  0  0  0  0  0
    6.1200   -0.2590    0.5120 N   0  0  0  0  0  0  0  0  0  0  0
    2.7210    0.6780    0.6240 O   0  0  0  0  0  0  0  0  0  0  0
    7.7510   -7.2200    1.3550 N   0  0  0  0  0  0  0  0  0  0  0
    6.1370   -5.6970    0.4520 C   0  0  0  0  0  0  0  0  0  0  0
    4.8320   -5.0220    0.5520 C   0  0  0  0  0  0  0  0  0  0  0
    0.2150   -3.4020    0.6980 C   0  0  0  0  0  0  0  0  0  0  0
    6.5880   -6.5350    1.4890 C   0  0  0  0  0  0  0  0  0  0  0
    8.5270   -7.1340    0.2470 C   0  0  0  0  0  0  0  0  0  0  0
    6.9380   -5.5760   -0.7000 C   0  0  0  0  0  0  0  0  0  0  0
    0.1380   -4.4100   -0.4630 C   0  0  0  0  0  0  0  0  0  0  0
    8.1360   -6.3020   -0.8130 C   0  0  0  0  0  0  0  0  0  0  0
    5.8360   -3.2080    0.5220 H   0  0  0  0  0  0  0  0  0  0  0
    1.8230    1.0690    0.6440 H   0  0  0  0  0  0  0  0  0  0  0
    4.3260   -5.3180    1.4740 H   0  0  0  0  0  0  0  0  0  0  0
    4.2140   -5.3380   -0.2920 H   0  0  0  0  0  0  0  0  0  0  0
    0.1270   -3.9400    1.6430 H   0  0  0  0  0  0  0  0  0  0  0
   -0.6110   -2.6960    0.6180 H   0  0  0  0  0  0  0  0  0  0  0
    6.0340   -6.6410    2.3390 H   0  0  0  0  0  0  0  0  0  0  0
    9.3920   -7.6720    0.1870 H   0  0  0  0  0  0  0  0  0  0  0
    6.6430   -4.9700   -1.4670 H   0  0  0  0  0  0  0  0  0  0  0
   -0.8190   -4.9310   -0.4260 H   0  0  0  0  0  0  0  0  0  0  0
    0.2280   -3.8890   -1.4170 H   0  0  0  0  0  0  0  0  0  0  0
    0.9420   -5.1450   -0.3790 H   0  0  0  0  0  0  0  0  0  0  0
    8.7120   -6.2280   -1.6530 H   0  0  0  0  0  0  0  0  0  0  0
  1  2  1  0  0  0  0
  1  3  2  0  0  0  0
  1  8  1  0  0  0  0
  2  4  2  0  0  0  0
  2  7  1  0  0  0  0
  3  6  1  0  0  0  0
  4  5  1  0  0  0  0
  4 10  1  0  0  0  0
  5  6  2  0  0  0  0
  6 14  1  0  0  0  0
  7  9  3  0  0  0  0
  8 13  1  0  0  0  0
  8 20  1  0  0  0  0
 10 21  1  0  0  0  0
 11 15  1  0  0  0  0
 11 16  2  0  0  0  0
 12 13  1  0  0  0  0
 12 15  2  0  0  0  0
 12 17  1  0  0  0  0
 13 22  1  0  0  0  0
 13 23  1  0  0  0  0
 14 18  1  0  0  0  0
 14 24  1  0  0  0  0
 14 25  1  0  0  0  0
 15 26  1  0  0  0  0
 16 19  1  0  0  0  0
 16 27  1  0  0  0  0
 17 19  2  0  0  0  0
 17 28  1  0  0  0  0
 18 29  1  0  0  0  0
 18 30  1  0  0  0  0
 18 31  1  0  0  0  0
 19 32  1  0  0  0  0
M  END
> <From>
www.bindingDB.org

> <BindingDB Reactant_set_id>
51108778

> <Ligand InChI>
InChI=1S/C21H22N2O4/c1-14(24)22-18-5-2-15(3-6-18)10-21(25)23-9-8-17(12-23)16-4-7-19-20(11-16)27-13-26-19/h2-7,11,17H,8-10,12-13H2,1H3,(H,22,24)

> <Ligand InChI Key>
PFNFWIPUTVTNTL-UHFFFAOYSA-N

> <BindingDB MonomerID>
50452504

> <BindingDB Ligand Name>
CHEMBL4218400

> <Target Name>
Enoyl-[acyl-carrier-protein] reductase [NADPH] FabI [9-251]

> <Target Source Organism According to Curator or DataSource>
Staphylococcus aureus

> <Ki (nM)>


> <IC50 (nM)>
>100000

> <Kd (nM)>


> <EC50 (nM)>


> <kon (M-1-s-1)>


> <koff (s-1)>


> <pH>


> <Temp C>


> <Curation/DataSource>
ChEMBL

> <Article DOI>
10.1016/j.bmc.2017.11.018

> <BindingDB Entry DOI>
10.7270/Q2QF8WF7

> <PMID>
29162308

> <PubChem AID>


> <Patent Number>


> <Authors>
Kwon, J; Mistry, T; Ren, J; Johnson, ME; Mehboob, S

> <Institution>
Novalex Therapeutics

> <Link to Ligand in BindingDB>
http://www.bindingdb.org/bind/chemsearch/marvin/MolStructure.jsp?monomerid=50452504

> <Link to Ligand-Target Pair in BindingDB>
http://www.bindingdb.org/jsp/dbsearch/PrimarySearch_ki.jsp?energyterm=kJ/mole&tag=pol&polymerid=50004708&target=Enoyl-%5Bacyl-carrier-protein%5D+reductase+%5BNADPH%5D+FabI+%5B9-251%5D&column=ki&startPg=0&Increment=50&submit=Search

> <Link to Ligand-Target Pair in BindingDB>
http://www.bindingdb.org/jsp/dbsearch/PrimarySearch_ki.jsp?energyterm=kJ/mole&tag=r21&monomerid=50452504&enzyme=Enoyl-%5Bacyl-carrier-protein%5D+reductase+%5BNADPH%5D+FabI+%5B9-251%5D&column=ki&startPg=0&Increment=50&submit=Search

> <Ligand HET ID in PDB>


> <PDB ID(s) for Ligand-Target Complex>


> <PubChem CID of Ligand>
122243073

> <PubChem SID of Ligand>
433921360

> <ChEBI ID of Ligand>


> <ChEMBL ID of Ligand>


> <DrugBank ID of Ligand>


> <IUPHAR_GRAC ID of Ligand>


> <KEGG ID of Ligand>


> <ZINC ID of Ligand>


> <Number of Protein Chains in Target (bigger than 1 implies a multichain complex)>
1

> <BindingDB Target Chain Sequence>
YVIMGIANKRSIAFGVAKVLDQLGAKLVFTYRKERSRKELEKLLEQLNQPEAHLYQIDVQSDEEVINGFEQIGKDVGNIDGVYHSIAFANMEDLRGRFSETSREGFLLAQDISSYSLTIVAHEAKKLMPEGGSIVATTYLGGEFAVQNYNVMGVAKASLEANVKYLALDLGPDNIRVNAISAGPIRTLSAKGVGGFNTILKEIEERAPLKRNVDQVEVGKTAAYLLSDLSSGVTGENIHVDSG

> <PDB ID(s) of Target Chain>
3GNS,3GNT,3GR6,4ALI,4ALJ,4ALK,4ALL,4ALM,4ALN,4BNF,4BNG,4BNH,4BNI,4BNJ,4BNK,4BNL,4BNM,4BNN,4CUZ,4CV0,4CV1,4D41,4D42,4D43,4D44,4D45,4FS3,4NZ9,6TBB,6TBC,6YUR

> <UniProt (SwissProt) Recommended Name of Target Chain>
Enoyl-[acyl-carrier-protein] reductase [NADPH] FabI

> <UniProt (SwissProt) Entry Name of Target Chain>
FABI_STAAR

> <UniProt (SwissProt) Primary ID of Target Chain>
Q6GI75

> <UniProt (SwissProt) Secondary ID(s) of Target Chain>


> <UniProt (SwissProt) Alternative ID(s) of Target Chain>


> <UniProt (TrEMBL) Submitted Name of Target Chain>


> <UniProt (TrEMBL) Entry Name of Target Chain>


> <UniProt (TrEMBL) Primary ID of Target Chain>


> <UniProt (TrEMBL) Secondary ID(s) of Target Chain>


> <UniProt (TrEMBL) Alternative ID(s) of Target Chain>


$$$$
BindingDB_50452505_mol_1

Vconf v2.0 Academic SN VC001-00000579
 29 30  0  0  0  0  0  0  0  0999 V2000
    3.9770   -2.3950    0.5520 C   0  0  0  0  0  0  0  0  0  0  0
    3.8970   -3.8030    0.5700 C   0  0  0  0  0  0  0  0  0  0  0
    2.7630   -1.6810    0.5150 C   0  0  0  0  0  0  0  0  0  0  0
    2.6790   -4.3950    0.5540 N   0  0  0  0  0  0  0  0  0  0  0
    1.5800   -2.3470    0.4980 N   0  0  0  0  0  0  0  0  0  0  0
    1.5250   -3.6980    0.5180 C   0  0  0  0  0  0  0  0  0  0  0
    5.1150   -1.7720    0.5660 C   0  0  0  0  0  0  0  0  0  0  0
    6.1220   -1.2240    0.5790 N   0  0  0  0  0  0  0  0  0  0  0
    4.9850   -4.6120    0.5990 N   0  0  0  0  0  0  0  0  0  0  0
    7.6770   -8.2860    1.5730 N   0  0  0  0  0  0  0  0  0  0  0
    2.7450    0.0540    0.4870 S   0  0  0  0  0  0  0  0  0  0  0
    6.1410   -6.7320    0.5880 C   0  0  0  0  0  0  0  0  0  0  0
    4.8460   -6.0320    0.6050 C   0  0  0  0  0  0  0  0  0  0  0
    6.5050   -7.6060    1.6300 C   0  0  0  0  0  0  0  0  0  0  0
    0.2560   -4.4230    0.4980 C   0  0  0  0  0  0  0  0  0  0  0
    8.5420   -8.1690    0.5340 C   0  0  0  0  0  0  0  0  0  0  0
    7.0280   -6.5920   -0.4980 C   0  0  0  0  0  0  0  0  0  0  0
    8.2340   -7.3120   -0.5340 C   0  0  0  0  0  0  0  0  0  0  0
    5.8760   -4.2230    0.6130 H   0  0  0  0  0  0  0  0  0  0  0
    1.4070    0.2960    0.4660 H   0  0  0  0  0  0  0  0  0  0  0
    4.2760   -6.3220    1.4920 H   0  0  0  0  0  0  0  0  0  0  0
    4.2810   -6.3440   -0.2770 H   0  0  0  0  0  0  0  0  0  0  0
    5.8800   -7.7390    2.4260 H   0  0  0  0  0  0  0  0  0  0  0
   -0.5820   -3.7270    0.4410 H   0  0  0  0  0  0  0  0  0  0  0
    0.2330   -5.0850   -0.3690 H   0  0  0  0  0  0  0  0  0  0  0
    0.1670   -5.0210    1.4060 H   0  0  0  0  0  0  0  0  0  0  0
    9.4100   -8.7060    0.5300 H   0  0  0  0  0  0  0  0  0  0  0
    6.7880   -5.9710   -1.2720 H   0  0  0  0  0  0  0  0  0  0  0
    8.8720   -7.2200   -1.3240 H   0  0  0  0  0  0  0  0  0  0  0
  1  2  2  0  0  0  0
  1  3  1  0  0  0  0
  1  7  1  0  0  0  0
  2  4  1  0  0  0  0
  2  9  1  0  0  0  0
  3  5  2  0  0  0  0
  3 11  1  0  0  0  0
  4  6  2  0  0  0  0
  5  6  1  0  0  0  0
  6 15  1  0  0  0  0
  7  8  3  0  0  0  0
  9 13  1  0  0  0  0
  9 19  1  0  0  0  0
 10 14  1  0  0  0  0
 10 16  2  0  0  0  0
 11 20  1  0  0  0  0
 12 13  1  0  0  0  0
 12 14  2  0  0  0  0
 12 17  1  0  0  0  0
 13 21  1  0  0  0  0
 13 22  1  0  0  0  0
 14 23  1  0  0  0  0
 15 24  1  0  0  0  0
 15 25  1  0  0  0  0
 15 26  1  0  0  0  0
 16 18  1  0  0  0  0
 16 27  1  0  0  0  0
 17 18  2  0  0  0  0
 17 28  1  0  0  0  0
 18 29  1  0  0  0  0
M  END
> <From>
www.bindingDB.org

> <BindingDB Reactant_set_id>
51108779

> <Ligand InChI>
InChI=1S/C20H22N2O2/c1-15(23)21-19-9-7-16(8-10-19)13-20(24)22-12-11-18(14-22)17-5-3-2-4-6-17/h2-10,18H,11-14H2,1H3,(H,21,23)

> <Ligand InChI Key>
DEKQULAMHDFDJQ-UHFFFAOYSA-N

> <BindingDB MonomerID>
50452505

> <BindingDB Ligand Name>
CHEMBL4214922

> <Target Name>
Enoyl-[acyl-carrier-protein] reductase [NADPH] FabI [9-251]

> <Target Source Organism According to Curator or DataSource>
Staphylococcus aureus

> <Ki (nM)>


> <IC50 (nM)>
>100000

> <Kd (nM)>


> <EC50 (nM)>


> <kon (M-1-s-1)>


> <koff (s-1)>


> <pH>


> <Temp C>


> <Curation/DataSource>
ChEMBL

> <Article DOI>
10.1016/j.bmc.2017.11.018

> <BindingDB Entry DOI>
10.7270/Q2QF8WF7

> <PMID>
29162308

> <PubChem AID>


> <Patent Number>


> <Authors>
Kwon, J; Mistry, T; Ren, J; Johnson, ME; Mehboob, S

> <Institution>
Novalex Therapeutics

> <Link to Ligand in BindingDB>
http://www.bindingdb.org/bind/chemsearch/marvin/MolStructure.jsp?monomerid=50452505

> <Link to Ligand-Target Pair in BindingDB>
http://www.bindingdb.org/jsp/dbsearch/PrimarySearch_ki.jsp?energyterm=kJ/mole&tag=pol&polymerid=50004708&target=Enoyl-%5Bacyl-carrier-protein%5D+reductase+%5BNADPH%5D+FabI+%5B9-251%5D&column=ki&startPg=0&Increment=50&submit=Search

> <Link to Ligand-Target Pair in BindingDB>
http://www.bindingdb.org/jsp/dbsearch/PrimarySearch_ki.jsp?energyterm=kJ/mole&tag=r21&monomerid=50452505&enzyme=Enoyl-%5Bacyl-carrier-protein%5D+reductase+%5BNADPH%5D+FabI+%5B9-251%5D&column=ki&startPg=0&Increment=50&submit=Search

> <Ligand HET ID in PDB>


> <PDB ID(s) for Ligand-Target Complex>


> <PubChem CID of Ligand>
122243071

> <PubChem SID of Ligand>
433921361

> <ChEBI ID of Ligand>


> <ChEMBL ID of Ligand>


> <DrugBank ID of Ligand>


> <IUPHAR_GRAC ID of Ligand>


> <KEGG ID of Ligand>


> <ZINC ID of Ligand>


> <Number of Protein Chains in Target (bigger than 1 implies a multichain complex)>
1

> <BindingDB Target Chain Sequence>
YVIMGIANKRSIAFGVAKVLDQLGAKLVFTYRKERSRKELEKLLEQLNQPEAHLYQIDVQSDEEVINGFEQIGKDVGNIDGVYHSIAFANMEDLRGRFSETSREGFLLAQDISSYSLTIVAHEAKKLMPEGGSIVATTYLGGEFAVQNYNVMGVAKASLEANVKYLALDLGPDNIRVNAISAGPIRTLSAKGVGGFNTILKEIEERAPLKRNVDQVEVGKTAAYLLSDLSSGVTGENIHVDSG

> <PDB ID(s) of Target Chain>
3GNS,3GNT,3GR6,4ALI,4ALJ,4ALK,4ALL,4ALM,4ALN,4BNF,4BNG,4BNH,4BNI,4BNJ,4BNK,4BNL,4BNM,4BNN,4CUZ,4CV0,4CV1,4D41,4D42,4D43,4D44,4D45,4FS3,4NZ9,6TBB,6TBC,6YUR

> <UniProt (SwissProt) Recommended Name of Target Chain>
Enoyl-[acyl-carrier-protein] reductase [NADPH] FabI

> <UniProt (SwissProt) Entry Name of Target Chain>
FABI_STAAR

> <UniProt (SwissProt) Primary ID of Target Chain>
Q6GI75

> <UniProt (SwissProt) Secondary ID(s) of Target Chain>


> <UniProt (SwissProt) Alternative ID(s) of Target Chain>


> <UniProt (TrEMBL) Submitted Name of Target Chain>


> <UniProt (TrEMBL) Entry Name of Target Chain>


> <UniProt (TrEMBL) Primary ID of Target Chain>


> <UniProt (TrEMBL) Secondary ID(s) of Target Chain>


> <UniProt (TrEMBL) Alternative ID(s) of Target Chain>


$$$$
BindingDB_50452514_mol_1

Vconf v2.0 Academic SN VC001-00000579
 35 36  0  0  0  0  0  0  0  0999 V2000
    3.1180   -3.5990    0.5840 N   0  0  0  0  0  0  0  0  0  0  0
    4.3150   -2.9790    0.5550 C   0  0  0  0  0  0  0  0  0  0  0
    4.3700   -1.5700    0.5710 C   0  0  0  0  0  0  0  0  0  0  0
    1.9720   -1.5840    0.6430 N   0  0  0  0  0  0  0  0  0  0  0
    1.9460   -2.9360    0.6280 C   0  0  0  0  0  0  0  0  0  0  0
    3.1360   -0.8950    0.6170 C   0  0  0  0  0  0  0  0  0  0  0
    5.4890   -0.9160    0.5450 C   0  0  0  0  0  0  0  0  0  0  0
    5.3990   -3.7910    0.5240 N   0  0  0  0  0  0  0  0  0  0  0
    6.4790   -0.3370    0.5220 N   0  0  0  0  0  0  0  0  0  0  0
    3.0550    0.4520    0.6380 O   0  0  0  0  0  0  0  0  0  0  0
    8.0610   -7.3970    1.6390 N   0  0  0  0  0  0  0  0  0  0  0
    0.7070   -3.7280    0.6600 C   0  0  0  0  0  0  0  0  0  0  0
    6.5280   -5.9210    0.5460 C   0  0  0  0  0  0  0  0  0  0  0
    5.2430   -5.2160    0.5050 C   0  0  0  0  0  0  0  0  0  0  0
    6.8690   -6.7470    1.6320 C   0  0  0  0  0  0  0  0  0  0  0
    8.9610   -7.2960    0.6290 C   0  0  0  0  0  0  0  0  0  0  0
    7.4330   -5.8220   -0.5230 C   0  0  0  0  0  0  0  0  0  0  0
    0.6200   -4.6180   -0.5980 C   0  0  0  0  0  0  0  0  0  0  0
    0.6730   -4.6050    1.9290 C   0  0  0  0  0  0  0  0  0  0  0
    8.6600   -6.5040   -0.4870 C   0  0  0  0  0  0  0  0  0  0  0
    6.2860   -3.4060    0.5260 H   0  0  0  0  0  0  0  0  0  0  0
    2.1360    0.7790    0.6740 H   0  0  0  0  0  0  0  0  0  0  0
   -0.1550   -3.0610    0.6750 H   0  0  0  0  0  0  0  0  0  0  0
    4.6360   -5.5090    1.3680 H   0  0  0  0  0  0  0  0  0  0  0
    4.7190   -5.5050   -0.4080 H   0  0  0  0  0  0  0  0  0  0  0
    6.2260   -6.8640    2.4220 H   0  0  0  0  0  0  0  0  0  0  0
    9.8490   -7.7910    0.6860 H   0  0  0  0  0  0  0  0  0  0  0
    7.1940   -5.2490   -1.3340 H   0  0  0  0  0  0  0  0  0  0  0
   -0.3260   -5.1540   -0.5980 H   0  0  0  0  0  0  0  0  0  0  0
    0.6780   -4.0080   -1.5010 H   0  0  0  0  0  0  0  0  0  0  0
    1.4370   -5.3440   -0.6140 H   0  0  0  0  0  0  0  0  0  0  0
   -0.2470   -5.1850    1.9460 H   0  0  0  0  0  0  0  0  0  0  0
    1.5220   -5.2930    1.9490 H   0  0  0  0  0  0  0  0  0  0  0
    0.7100   -3.9810    2.8230 H   0  0  0  0  0  0  0  0  0  0  0
    9.3190   -6.4180   -1.2550 H   0  0  0  0  0  0  0  0  0  0  0
  1  2  2  0  0  0  0
  1  5  1  0  0  0  0
  2  3  1  0  0  0  0
  2  8  1  0  0  0  0
  3  6  2  0  0  0  0
  3  7  1  0  0  0  0
  4  5  2  0  0  0  0
  4  6  1  0  0  0  0
  5 12  1  0  0  0  0
  6 10  1  0  0  0  0
  7  9  3  0  0  0  0
  8 14  1  0  0  0  0
  8 21  1  0  0  0  0
 10 22  1  0  0  0  0
 11 15  1  0  0  0  0
 11 16  2  0  0  0  0
 12 18  1  0  0  0  0
 12 19  1  0  0  0  0
 12 23  1  0  0  0  0
 13 14  1  0  0  0  0
 13 15  2  0  0  0  0
 13 17  1  0  0  0  0
 14 24  1  0  0  0  0
 14 25  1  0  0  0  0
 15 26  1  0  0  0  0
 16 20  1  0  0  0  0
 16 27  1  0  0  0  0
 17 20  2  0  0  0  0
 17 28  1  0  0  0  0
 18 29  1  0  0  0  0
 18 30  1  0  0  0  0
 18 31  1  0  0  0  0
 19 32  1  0  0  0  0
 19 33  1  0  0  0  0
 19 34  1  0  0  0  0
 20 35  1  0  0  0  0
M  END
> <From>
www.bindingDB.org

> <BindingDB Reactant_set_id>
51108801

> <Ligand InChI>
InChI=1S/C21H24N2O3/c1-15(24)22-19-7-3-16(4-8-19)13-21(25)23-12-11-18(14-23)17-5-9-20(26-2)10-6-17/h3-10,18H,11-14H2,1-2H3,(H,22,24)

> <Ligand InChI Key>
PLKCGWJGDQCENY-UHFFFAOYSA-N

> <BindingDB MonomerID>
50452514

> <BindingDB Ligand Name>
CHEMBL4217867

> <Target Name>
Enoyl-[acyl-carrier-protein] reductase [NADPH] FabI [9-251]

> <Target Source Organism According to Curator or DataSource>
Staphylococcus aureus

> <Ki (nM)>


> <IC50 (nM)>
>100000

> <Kd (nM)>


> <EC50 (nM)>


> <kon (M-1-s-1)>


> <koff (s-1)>


> <pH>


> <Temp C>


> <Curation/DataSource>
ChEMBL

> <Article DOI>
10.1016/j.bmc.2017.11.018

> <BindingDB Entry DOI>
10.7270/Q2QF8WF7

> <PMID>
29162308

> <PubChem AID>


> <Patent Number>


> <Authors>
Kwon, J; Mistry, T; Ren, J; Johnson, ME; Mehboob, S

> <Institution>
Novalex Therapeutics

> <Link to Ligand in BindingDB>
http://www.bindingdb.org/bind/chemsearch/marvin/MolStructure.jsp?monomerid=50452514

> <Link to Ligand-Target Pair in BindingDB>
http://www.bindingdb.org/jsp/dbsearch/PrimarySearch_ki.jsp?energyterm=kJ/mole&tag=pol&polymerid=50004708&target=Enoyl-%5Bacyl-carrier-protein%5D+reductase+%5BNADPH%5D+FabI+%5B9-251%5D&column=ki&startPg=0&Increment=50&submit=Search

> <Link to Ligand-Target Pair in BindingDB>
http://www.bindingdb.org/jsp/dbsearch/PrimarySearch_ki.jsp?energyterm=kJ/mole&tag=r21&monomerid=50452514&enzyme=Enoyl-%5Bacyl-carrier-protein%5D+reductase+%5BNADPH%5D+FabI+%5B9-251%5D&column=ki&startPg=0&Increment=50&submit=Search

> <Ligand HET ID in PDB>


> <PDB ID(s) for Ligand-Target Complex>


> <PubChem CID of Ligand>
122243074

> <PubChem SID of Ligand>
433921370

> <ChEBI ID of Ligand>


> <ChEMBL ID of Ligand>


> <DrugBank ID of Ligand>


> <IUPHAR_GRAC ID of Ligand>


> <KEGG ID of Ligand>


> <ZINC ID of Ligand>


> <Number of Protein Chains in Target (bigger than 1 implies a multichain complex)>
1

> <BindingDB Target Chain Sequence>
YVIMGIANKRSIAFGVAKVLDQLGAKLVFTYRKERSRKELEKLLEQLNQPEAHLYQIDVQSDEEVINGFEQIGKDVGNIDGVYHSIAFANMEDLRGRFSETSREGFLLAQDISSYSLTIVAHEAKKLMPEGGSIVATTYLGGEFAVQNYNVMGVAKASLEANVKYLALDLGPDNIRVNAISAGPIRTLSAKGVGGFNTILKEIEERAPLKRNVDQVEVGKTAAYLLSDLSSGVTGENIHVDSG

> <PDB ID(s) of Target Chain>
3GNS,3GNT,3GR6,4ALI,4ALJ,4ALK,4ALL,4ALM,4ALN,4BNF,4BNG,4BNH,4BNI,4BNJ,4BNK,4BNL,4BNM,4BNN,4CUZ,4CV0,4CV1,4D41,4D42,4D43,4D44,4D45,4FS3,4NZ9,6TBB,6TBC,6YUR

> <UniProt (SwissProt) Recommended Name of Target Chain>
Enoyl-[acyl-carrier-protein] reductase [NADPH] FabI

> <UniProt (SwissProt) Entry Name of Target Chain>
FABI_STAAR

> <UniProt (SwissProt) Primary ID of Target Chain>
Q6GI75

> <UniProt (SwissProt) Secondary ID(s) of Target Chain>


> <UniProt (SwissProt) Alternative ID(s) of Target Chain>


> <UniProt (TrEMBL) Submitted Name of Target Chain>


> <UniProt (TrEMBL) Entry Name of Target Chain>


> <UniProt (TrEMBL) Primary ID of Target Chain>


> <UniProt (TrEMBL) Secondary ID(s) of Target Chain>


> <UniProt (TrEMBL) Alternative ID(s) of Target Chain>


$$$$
BindingDB_50452513_mol_1

Vconf v2.0 Academic SN VC001-00000579
 24 24  0  0  0  0  0  0  0  0999 V2000
    4.0160   -2.3830    0.5680 C   0  0  0  0  0  0  0  0  0  0  0
    3.9280   -3.7960    0.5610 C   0  0  0  0  0  0  0  0  0  0  0
    2.7830   -1.6980    0.5180 C   0  0  0  0  0  0  0  0  0  0  0
    2.7180   -4.4050    0.5080 N   0  0  0  0  0  0  0  0  0  0  0
    5.2060   -1.7090    0.6180 N   0  3  0  0  0  0  0  0  0  0  0
    1.6080   -2.3640    0.4670 N   0  0  0  0  0  0  0  0  0  0  0
    1.5600   -3.7130    0.4610 C   0  0  0  0  0  0  0  0  0  0  0
    5.2760   -0.5080    0.6240 O   0  5  0  0  0  0  0  0  0  0  0
    2.7170   -0.3510    0.5200 O   0  0  0  0  0  0  0  0  0  0  0
    6.2670   -2.2730    0.6600 O   0  0  0  0  0  0  0  0  0  0  0
    5.0300   -4.5790    0.6050 N   0  0  0  0  0  0  0  0  0  0  0
    0.2810   -4.4190    0.4040 C   0  0  0  0  0  0  0  0  0  0  0
    4.9770   -5.9980    0.5990 C   0  0  0  0  0  0  0  0  0  0  0
    6.4000   -6.5630    0.6570 C   0  0  0  0  0  0  0  0  0  0  0
    1.8040    0.0040    0.4850 H   0  0  0  0  0  0  0  0  0  0  0
    5.9020   -4.1570    0.6440 H   0  0  0  0  0  0  0  0  0  0  0
   -0.5420   -3.7040    0.3730 H   0  0  0  0  0  0  0  0  0  0  0
    0.2500   -5.0420   -0.4900 H   0  0  0  0  0  0  0  0  0  0  0
    0.1760   -5.0500    1.2870 H   0  0  0  0  0  0  0  0  0  0  0
    4.4160   -6.3530    1.4650 H   0  0  0  0  0  0  0  0  0  0  0
    4.4910   -6.3480   -0.3130 H   0  0  0  0  0  0  0  0  0  0  0
    6.3570   -7.6530    0.6550 H   0  0  0  0  0  0  0  0  0  0  0
    6.9670   -6.2250   -0.2110 H   0  0  0  0  0  0  0  0  0  0  0
    6.8940   -6.2250    1.5680 H   0  0  0  0  0  0  0  0  0  0  0
  1  2  1  0  0  0  0
  1  3  2  0  0  0  0
  1  5  1  0  0  0  0
  2  4  2  0  0  0  0
  2 11  1  0  0  0  0
  3  6  1  0  0  0  0
  3  9  1  0  0  0  0
  4  7  1  0  0  0  0
  5  8  1  0  0  0  0
  5 10  2  0  0  0  0
  6  7  2  0  0  0  0
  7 12  1  0  0  0  0
  9 15  1  0  0  0  0
 11 13  1  0  0  0  0
 11 16  1  0  0  0  0
 12 17  1  0  0  0  0
 12 18  1  0  0  0  0
 12 19  1  0  0  0  0
 13 14  1  0  0  0  0
 13 20  1  0  0  0  0
 13 21  1  0  0  0  0
 14 22  1  0  0  0  0
 14 23  1  0  0  0  0
 14 24  1  0  0  0  0
M  CHG  1   5   1
M  CHG  1   8  -1
M  END
> <From>
www.bindingDB.org

> <BindingDB Reactant_set_id>
51108808

> <Ligand InChI>
InChI=1S/C21H24N2O3/c1-15(24)22-18-9-7-16(8-10-18)13-21(25)23-12-11-17(14-23)19-5-3-4-6-20(19)26-2/h3-10,17H,11-14H2,1-2H3,(H,22,24)

> <Ligand InChI Key>
AJYAUJLZPYUXID-UHFFFAOYSA-N

> <BindingDB MonomerID>
50452513

> <BindingDB Ligand Name>
CHEMBL4213468

> <Target Name>
Enoyl-[acyl-carrier-protein] reductase [NADPH] FabI [9-251]

> <Target Source Organism According to Curator or DataSource>
Staphylococcus aureus

> <Ki (nM)>


> <IC50 (nM)>
>100000

> <Kd (nM)>


> <EC50 (nM)>


> <kon (M-1-s-1)>


> <koff (s-1)>


> <pH>


> <Temp C>


> <Curation/DataSource>
ChEMBL

> <Article DOI>
10.1016/j.bmc.2017.11.018

> <BindingDB Entry DOI>
10.7270/Q2QF8WF7

> <PMID>
29162308

> <PubChem AID>


> <Patent Number>


> <Authors>
Kwon, J; Mistry, T; Ren, J; Johnson, ME; Mehboob, S

> <Institution>
Novalex Therapeutics

> <Link to Ligand in BindingDB>
http://www.bindingdb.org/bind/chemsearch/marvin/MolStructure.jsp?monomerid=50452513

> <Link to Ligand-Target Pair in BindingDB>
http://www.bindingdb.org/jsp/dbsearch/PrimarySearch_ki.jsp?energyterm=kJ/mole&tag=pol&polymerid=50004708&target=Enoyl-%5Bacyl-carrier-protein%5D+reductase+%5BNADPH%5D+FabI+%5B9-251%5D&column=ki&startPg=0&Increment=50&submit=Search

> <Link to Ligand-Target Pair in BindingDB>
http://www.bindingdb.org/jsp/dbsearch/PrimarySearch_ki.jsp?energyterm=kJ/mole&tag=r21&monomerid=50452513&enzyme=Enoyl-%5Bacyl-carrier-protein%5D+reductase+%5BNADPH%5D+FabI+%5B9-251%5D&column=ki&startPg=0&Increment=50&submit=Search

> <Ligand HET ID in PDB>


> <PDB ID(s) for Ligand-Target Complex>


> <PubChem CID of Ligand>
122243072

> <PubChem SID of Ligand>
433921369

> <ChEBI ID of Ligand>


> <ChEMBL ID of Ligand>


> <DrugBank ID of Ligand>


> <IUPHAR_GRAC ID of Ligand>


> <KEGG ID of Ligand>


> <ZINC ID of Ligand>


> <Number of Protein Chains in Target (bigger than 1 implies a multichain complex)>
1

> <BindingDB Target Chain Sequence>
YVIMGIANKRSIAFGVAKVLDQLGAKLVFTYRKERSRKELEKLLEQLNQPEAHLYQIDVQSDEEVINGFEQIGKDVGNIDGVYHSIAFANMEDLRGRFSETSREGFLLAQDISSYSLTIVAHEAKKLMPEGGSIVATTYLGGEFAVQNYNVMGVAKASLEANVKYLALDLGPDNIRVNAISAGPIRTLSAKGVGGFNTILKEIEERAPLKRNVDQVEVGKTAAYLLSDLSSGVTGENIHVDSG

> <PDB ID(s) of Target Chain>
3GNS,3GNT,3GR6,4ALI,4ALJ,4ALK,4ALL,4ALM,4ALN,4BNF,4BNG,4BNH,4BNI,4BNJ,4BNK,4BNL,4BNM,4BNN,4CUZ,4CV0,4CV1,4D41,4D42,4D43,4D44,4D45,4FS3,4NZ9,6TBB,6TBC,6YUR

> <UniProt (SwissProt) Recommended Name of Target Chain>
Enoyl-[acyl-carrier-protein] reductase [NADPH] FabI

> <UniProt (SwissProt) Entry Name of Target Chain>
FABI_STAAR

> <UniProt (SwissProt) Primary ID of Target Chain>
Q6GI75

> <UniProt (SwissProt) Secondary ID(s) of Target Chain>


> <UniProt (SwissProt) Alternative ID(s) of Target Chain>


> <UniProt (TrEMBL) Submitted Name of Target Chain>


> <UniProt (TrEMBL) Entry Name of Target Chain>


> <UniProt (TrEMBL) Primary ID of Target Chain>


> <UniProt (TrEMBL) Secondary ID(s) of Target Chain>


> <UniProt (TrEMBL) Alternative ID(s) of Target Chain>


$$$$
BindingDB_50349975_mol_1

Vconf v2.0 Academic SN VC001-00000579
 43 45  0  0  0  0  0  0  0  0999 V2000
   -3.6710  -19.5340   -0.0410 C   0  0  0  0  0  0  0  0  0  0  0
   -3.6110  -20.8690   -0.4710 C   0  0  0  0  0  0  0  0  0  0  0
   -2.9580  -21.8290    0.3180 C   0  0  0  0  0  0  0  0  0  0  0
   -3.0780  -19.1510    1.1760 C   0  0  0  0  0  0  0  0  0  0  0
   -2.4130  -20.1100    1.9790 C   0  0  0  0  0  0  0  0  0  0  0
   -2.3660  -21.4510    1.5350 C   0  0  0  0  0  0  0  0  0  0  0
   -1.7400  -22.4000    2.2910 O   0  0  0  0  0  0  0  0  0  0  0
   -1.1920  -22.0740    3.4680 C   0  0  0  0  0  0  0  0  0  0  0
   -1.2020  -20.8140    3.9400 C   0  0  0  0  0  0  0  0  0  0  0
   -1.7900  -19.8270    3.1930 C   0  0  0  0  0  0  0  0  0  0  0
   -1.7410  -18.6680    3.5860 O   0  0  0  0  0  0  0  0  0  0  0
   -3.1770  -17.8480    1.5290 O   0  0  0  0  0  0  0  0  0  0  0
   -4.1830  -21.2240   -1.6430 O   0  0  0  0  0  0  0  0  0  0  0
   -0.6200  -20.5550    5.1720 C   0  0  0  0  0  0  0  0  0  0  0
   -1.4080  -20.1160    6.2560 C   0  0  0  0  0  0  0  0  0  0  0
   -0.8280  -19.8410    7.5110 C   0  0  0  0  0  0  0  0  0  0  0
    0.5620  -20.0240    7.6790 C   0  0  0  0  0  0  0  0  0  0  0
    1.3540  -20.4630    6.6050 C   0  0  0  0  0  0  0  0  0  0  0
    0.7680  -20.7250    5.3570 C   0  0  0  0  0  0  0  0  0  0  0
    1.1440  -19.7800    8.8760 O   0  0  0  0  0  0  0  0  0  0  0
   -1.6700  -19.3710    8.6340 C   0  0  0  0  0  0  0  0  0  0  0
   -1.3830  -18.0050    9.0180 C   0  0  0  0  0  0  0  0  0  0  0
   -2.0300  -17.3810   10.0110 C   0  0  0  0  0  0  0  0  0  0  0
   -1.6710  -16.0170   10.3170 C   0  0  0  0  0  0  0  0  0  0  0
   -3.0680  -18.0430   10.7650 C   0  0  0  0  0  0  0  0  0  0  0
   -4.1480  -18.8380   -0.6150 H   0  0  0  0  0  0  0  0  0  0  0
   -2.9140  -22.8010    0.0100 H   0  0  0  0  0  0  0  0  0  0  0
   -0.7720  -22.8030    3.9950 H   0  0  0  0  0  0  0  0  0  0  0
   -2.7530  -17.6150    2.3810 H   0  0  0  0  0  0  0  0  0  0  0
   -4.0920  -22.1720   -1.8720 H   0  0  0  0  0  0  0  0  0  0  0
   -2.4130  -19.9880    6.1290 H   0  0  0  0  0  0  0  0  0  0  0
    2.3590  -20.5910    6.7300 H   0  0  0  0  0  0  0  0  0  0  0
    1.3550  -21.0400    4.5840 H   0  0  0  0  0  0  0  0  0  0  0
    2.1110  -19.9370    8.9000 H   0  0  0  0  0  0  0  0  0  0  0
   -2.7250  -19.4340    8.3600 H   0  0  0  0  0  0  0  0  0  0  0
   -1.5030  -20.0270    9.4900 H   0  0  0  0  0  0  0  0  0  0  0
   -0.6790  -17.5020    8.5300 H   0  0  0  0  0  0  0  0  0  0  0
   -2.2740  -15.6250   11.1360 H   0  0  0  0  0  0  0  0  0  0  0
   -0.6190  -15.9720   10.6030 H   0  0  0  0  0  0  0  0  0  0  0
   -1.8280  -15.3910    9.4370 H   0  0  0  0  0  0  0  0  0  0  0
   -3.4710  -17.3860   11.5370 H   0  0  0  0  0  0  0  0  0  0  0
   -3.8800  -18.3320   10.0970 H   0  0  0  0  0  0  0  0  0  0  0
   -2.6630  -18.9340   11.2460 H   0  0  0  0  0  0  0  0  0  0  0
  1  2  2  0  0  0  0
  1  4  1  0  0  0  0
  1 26  1  0  0  0  0
  2  3  1  0  0  0  0
  2 13  1  0  0  0  0
  3  6  2  0  0  0  0
  3 27  1  0  0  0  0
  4  5  2  0  0  0  0
  4 12  1  0  0  0  0
  5  6  1  0  0  0  0
  5 10  1  0  0  0  0
  6  7  1  0  0  0  0
  7  8  1  0  0  0  0
  8  9  2  0  0  0  0
  8 28  1  0  0  0  0
  9 10  1  0  0  0  0
  9 14  1  0  0  0  0
 10 11  2  0  0  0  0
 12 29  1  0  0  0  0
 13 30  1  0  0  0  0
 14 15  2  0  0  0  0
 14 19  1  0  0  0  0
 15 16  1  0  0  0  0
 15 31  1  0  0  0  0
 16 17  2  0  0  0  0
 16 21  1  0  0  0  0
 17 18  1  0  0  0  0
 17 20  1  0  0  0  0
 18 19  2  0  0  0  0
 18 32  1  0  0  0  0
 19 33  1  0  0  0  0
 20 34  1  0  0  0  0
 21 22  1  0  0  0  0
 21 35  1  0  0  0  0
 21 36  1  0  0  0  0
 22 23  2  0  0  0  0
 22 37  1  0  0  0  0
 23 24  1  0  0  0  0
 23 25  1  0  0  0  0
 24 38  1  0  0  0  0
 24 39  1  0  0  0  0
 24 40  1  0  0  0  0
 25 41  1  0  0  0  0
 25 42  1  0  0  0  0
 25 43  1  0  0  0  0
M  END
> <From>
www.bindingDB.org

> <BindingDB Reactant_set_id>
50653134

> <Ligand InChI>
InChI=1S/C20H18O5/c1-11(2)3-4-13-7-12(5-6-16(13)22)15-10-25-18-9-14(21)8-17(23)19(18)20(15)24/h3,5-10,21-23H,4H2,1-2H3

> <Ligand InChI Key>
SWDSVBNAMCDHTF-UHFFFAOYSA-N

> <BindingDB MonomerID>
50349975

> <BindingDB Ligand Name>
CHEMBL1812593

> <Target Name>
Enoyl-ACP reductase

> <Target Source Organism According to Curator or DataSource>
Plasmodium falciparum

> <Ki (nM)>


> <IC50 (nM)>
 248300

> <Kd (nM)>


> <EC50 (nM)>


> <kon (M-1-s-1)>


> <koff (s-1)>


> <pH>


> <Temp C>


> <Curation/DataSource>
ChEMBL

> <Article DOI>
10.1021/np100896w

> <BindingDB Entry DOI>
10.7270/Q2WH2QC7

> <PMID>
21619045

> <PubChem AID>


> <Patent Number>


> <Authors>
Bankeu, JJ; Khayala, R; Lenta, BN; Noungoue, DT; Ngouela, SA; Mustafa, SA; Asaad, K; Choudhary, MI; Prigge, ST; Hasanov, R; Nkengfack, AE; Tsamo, E; Ali, MS

> <Institution>
University of Yaounde

> <Link to Ligand in BindingDB>
http://www.bindingdb.org/bind/chemsearch/marvin/MolStructure.jsp?monomerid=50349975

> <Link to Ligand-Target Pair in BindingDB>
http://www.bindingdb.org/jsp/dbsearch/PrimarySearch_ki.jsp?energyterm=kJ/mole&tag=pol&polymerid=2820&target=Enoyl-ACP+reductase&column=ki&startPg=0&Increment=50&submit=Search

> <Link to Ligand-Target Pair in BindingDB>
http://www.bindingdb.org/jsp/dbsearch/PrimarySearch_ki.jsp?energyterm=kJ/mole&tag=r21&monomerid=50349975&enzyme=Enoyl-ACP+reductase&column=ki&startPg=0&Increment=50&submit=Search

> <Ligand HET ID in PDB>


> <PDB ID(s) for Ligand-Target Complex>


> <PubChem CID of Ligand>
5494866

> <PubChem SID of Ligand>
136356661

> <ChEBI ID of Ligand>
69750

> <ChEMBL ID of Ligand>
CHEMBL1812593

> <DrugBank ID of Ligand>


> <IUPHAR_GRAC ID of Ligand>


> <KEGG ID of Ligand>


> <ZINC ID of Ligand>
ZINC14819484

> <Number of Protein Chains in Target (bigger than 1 implies a multichain complex)>
1

> <BindingDB Target Chain Sequence>
MNKISQRLLFLFLHFYTTVCFIQNNTQKTFHNVLQNEQIRGKEKAFYRKEKRENIFIGNK
MKHVHNMNNTHNNNHYMEKEEQDASNINKIKEENKNEDICFIAGIGDTNGYGWGIAKELS
KRNVKIIFGIWPPVYNIFMKNYKNGKFDNDMIIDKDKKMNILDMLPFDASFDTANDIDEE
TKNNKRYNMLQNYTIEDVANLIHQKYGKINMLVHSLANAKEVQKDLLNTSRKGYLDALSK
SSYSLISLCKYFVNIMKPQSSIISLTYHASQKVVPGYGGGMSSAKAALESDTRVLAYHLG
RNYNIRINTISAGPLKSRAATAINKLNNTYENNTNQNKNRNRHDVHNIMNNSGEKEEKKI
SASQNYTFIDYAIEYSEKYAPLRQKLLSTDIGSVASFLLSRESRAITGQTIYVDNGLNIM
FLPDDIYRNENE

> <PDB ID(s) of Target Chain>
1NHG,1NHW,1NNU,1UH5,1V35,2FOI,2NQ8,3LSY,3LT0,3LT1,3LT2,3LT4

> <UniProt (SwissProt) Recommended Name of Target Chain>


> <UniProt (SwissProt) Entry Name of Target Chain>


> <UniProt (SwissProt) Primary ID of Target Chain>


> <UniProt (SwissProt) Secondary ID(s) of Target Chain>


> <UniProt (SwissProt) Alternative ID(s) of Target Chain>


> <UniProt (TrEMBL) Submitted Name of Target Chain>
Enoyl-ACP reductase

> <UniProt (TrEMBL) Entry Name of Target Chain>
Q9BJJ9_PLAFA

> <UniProt (TrEMBL) Primary ID of Target Chain>
Q9BJJ9

> <UniProt (TrEMBL) Secondary ID(s) of Target Chain>


> <UniProt (TrEMBL) Alternative ID(s) of Target Chain>


$$$$
BindingDB_97445_mol_1

Vconf v2.0 Academic SN VC001-00000579
 43 44  0  0  0  0  0  0  0  0999 V2000
   -0.5650    3.8630    0.6840 C   0  0  0  0  0  0  0  0  0  0  0
   -1.7320    3.1710    0.3210 C   0  0  0  0  0  0  0  0  0  0  0
   -1.9340    1.8410    0.7380 C   0  0  0  0  0  0  0  0  0  0  0
   -0.9490    1.2150    1.5260 C   0  0  0  0  0  0  0  0  0  0  0
    0.2190    1.9070    1.8900 C   0  0  0  0  0  0  0  0  0  0  0
    0.4190    3.2430    1.4780 C   0  0  0  0  0  0  0  0  0  0  0
    1.5290    3.9890    1.7870 O   0  0  0  0  0  0  0  0  0  0  0
    2.4330    3.6550    2.7580 C   0  0  0  0  0  0  0  0  0  0  0
    2.1480    3.7640    4.1400 C   0  0  0  0  0  0  0  0  0  0  0
    3.7050    3.2190    2.3420 C   0  0  0  0  0  0  0  0  0  0  0
    4.6840    2.8740    3.2880 C   0  0  0  0  0  0  0  0  0  0  0
    4.3980    2.9700    4.6590 C   0  0  0  0  0  0  0  0  0  0  0
    3.1350    3.4150    5.0860 C   0  0  0  0  0  0  0  0  0  0  0
   -0.3940    5.1380    0.2700 O   0  0  0  0  0  0  0  0  0  0  0
   -3.1690    1.1230    0.3660 C   0  0  0  0  0  0  0  0  0  0  0
    0.9890    4.1870    4.5540 C   0  0  0  0  0  0  0  0  0  0  0
   -0.0340    4.5580    4.9190 N   0  0  0  0  0  0  0  0  0  0  0
   -3.2650    0.8840   -1.1530 C   0  0  0  0  0  0  0  0  0  0  0
   -4.5530    0.1160   -1.4860 C   0  0  0  0  0  0  0  0  0  0  0
   -4.6570   -0.1290   -2.9990 C   0  0  0  0  0  0  0  0  0  0  0
   -5.9540   -0.8830   -3.3290 C   0  0  0  0  0  0  0  0  0  0  0
   -6.0610   -1.1360   -4.8380 C   0  0  0  0  0  0  0  0  0  0  0
   -2.4390    3.6390   -0.2480 H   0  0  0  0  0  0  0  0  0  0  0
   -1.0780    0.2510    1.8370 H   0  0  0  0  0  0  0  0  0  0  0
    0.9220    1.4320    2.4570 H   0  0  0  0  0  0  0  0  0  0  0
    3.9170    3.1500    1.3460 H   0  0  0  0  0  0  0  0  0  0  0
    5.6020    2.5550    2.9790 H   0  0  0  0  0  0  0  0  0  0  0
    5.1090    2.7190    5.3470 H   0  0  0  0  0  0  0  0  0  0  0
    2.9470    3.4830    6.0890 H   0  0  0  0  0  0  0  0  0  0  0
    0.4430    5.5460    0.5790 H   0  0  0  0  0  0  0  0  0  0  0
   -3.2080    0.1530    0.8660 H   0  0  0  0  0  0  0  0  0  0  0
   -4.0320    1.7070    0.6910 H   0  0  0  0  0  0  0  0  0  0  0
   -3.2750    1.8390   -1.6810 H   0  0  0  0  0  0  0  0  0  0  0
   -2.4050    0.3000   -1.4850 H   0  0  0  0  0  0  0  0  0  0  0
   -4.5470   -0.8430   -0.9660 H   0  0  0  0  0  0  0  0  0  0  0
   -5.4150    0.6980   -1.1550 H   0  0  0  0  0  0  0  0  0  0  0
   -4.6540    0.8290   -3.5200 H   0  0  0  0  0  0  0  0  0  0  0
   -3.8010   -0.7190   -3.3280 H   0  0  0  0  0  0  0  0  0  0  0
   -5.9620   -1.8400   -2.8060 H   0  0  0  0  0  0  0  0  0  0  0
   -6.8110   -0.2910   -3.0050 H   0  0  0  0  0  0  0  0  0  0  0
   -6.9890   -1.6660   -5.0520 H   0  0  0  0  0  0  0  0  0  0  0
   -6.0600   -0.1850   -5.3720 H   0  0  0  0  0  0  0  0  0  0  0
   -5.2170   -1.7400   -5.1720 H   0  0  0  0  0  0  0  0  0  0  0
  1  2  2  0  0  0  0
  1  6  1  0  0  0  0
  1 14  1  0  0  0  0
  2  3  1  0  0  0  0
  2 23  1  0  0  0  0
  3  4  2  0  0  0  0
  3 15  1  0  0  0  0
  4  5  1  0  0  0  0
  4 24  1  0  0  0  0
  5  6  2  0  0  0  0
  5 25  1  0  0  0  0
  6  7  1  0  0  0  0
  7  8  1  0  0  0  0
  8  9  2  0  0  0  0
  8 10  1  0  0  0  0
  9 13  1  0  0  0  0
  9 16  1  0  0  0  0
 10 11  2  0  0  0  0
 10 26  1  0  0  0  0
 11 12  1  0  0  0  0
 11 27  1  0  0  0  0
 12 13  2  0  0  0  0
 12 28  1  0  0  0  0
 13 29  1  0  0  0  0
 14 30  1  0  0  0  0
 15 18  1  0  0  0  0
 15 31  1  0  0  0  0
 15 32  1  0  0  0  0
 16 17  3  0  0  0  0
 18 19  1  0  0  0  0
 18 33  1  0  0  0  0
 18 34  1  0  0  0  0
 19 20  1  0  0  0  0
 19 35  1  0  0  0  0
 19 36  1  0  0  0  0
 20 21  1  0  0  0  0
 20 37  1  0  0  0  0
 20 38  1  0  0  0  0
 21 22  1  0  0  0  0
 21 39  1  0  0  0  0
 21 40  1  0  0  0  0
 22 41  1  0  0  0  0
 22 42  1  0  0  0  0
 22 43  1  0  0  0  0
M  END
> <From>
www.bindingDB.org

> <BindingDB Reactant_set_id>
50235832

> <Ligand InChI>
InChI=1S/C19H21NO2/c1-2-3-4-5-8-15-11-12-19(17(21)13-15)22-18-10-7-6-9-16(18)14-20/h6-7,9-13,21H,2-5,8H2,1H3

> <Ligand InChI Key>
RPZKERMNVCALKE-UHFFFAOYSA-N

> <BindingDB MonomerID>
97445

> <BindingDB Ligand Name>
PT119

> <Target Name>
Enoyl-[acyl-carrier-protein] reductase [NADPH] FabI [9-251]

> <Target Source Organism According to Curator or DataSource>
Staphylococcus aureus

> <Ki (nM)>
 0.010000

> <IC50 (nM)>


> <Kd (nM)>


> <EC50 (nM)>


> <kon (M-1-s-1)>


> <koff (s-1)>


> <pH>


> <Temp C>


> <Curation/DataSource>
ChEMBL

> <Article DOI>
10.1016/j.ejmech.2014.09.008

> <BindingDB Entry DOI>
10.7270/Q25T3N3S

> <PMID>
25217335

> <PubChem AID>


> <Patent Number>


> <Authors>
Wang, H; Lu, Y; Liu, L; Kim, SW; Hooker, JM; Fowler, JS; Tonge, PJ

> <Institution>
Stony Brook University

> <Link to Ligand in BindingDB>
http://www.bindingdb.org/bind/chemsearch/marvin/MolStructure.jsp?monomerid=97445

> <Link to Ligand-Target Pair in BindingDB>
http://www.bindingdb.org/jsp/dbsearch/PrimarySearch_ki.jsp?energyterm=kJ/mole&tag=pol&polymerid=50004708&target=Enoyl-%5Bacyl-carrier-protein%5D+reductase+%5BNADPH%5D+FabI+%5B9-251%5D&column=ki&startPg=0&Increment=50&submit=Search

> <Link to Ligand-Target Pair in BindingDB>
http://www.bindingdb.org/jsp/dbsearch/PrimarySearch_ki.jsp?energyterm=kJ/mole&tag=r21&monomerid=97445&enzyme=Enoyl-%5Bacyl-carrier-protein%5D+reductase+%5BNADPH%5D+FabI+%5B9-251%5D&column=ki&startPg=0&Increment=50&submit=Search

> <Ligand HET ID in PDB>
JUS

> <PDB ID(s) for Ligand-Target Complex>
4OIM,4BNN

> <PubChem CID of Ligand>
71464709

> <PubChem SID of Ligand>
164038689

> <ChEBI ID of Ligand>


> <ChEMBL ID of Ligand>


> <DrugBank ID of Ligand>


> <IUPHAR_GRAC ID of Ligand>


> <KEGG ID of Ligand>


> <ZINC ID of Ligand>
ZINC95921221

> <Number of Protein Chains in Target (bigger than 1 implies a multichain complex)>
1

> <BindingDB Target Chain Sequence>
YVIMGIANKRSIAFGVAKVLDQLGAKLVFTYRKERSRKELEKLLEQLNQPEAHLYQIDVQSDEEVINGFEQIGKDVGNIDGVYHSIAFANMEDLRGRFSETSREGFLLAQDISSYSLTIVAHEAKKLMPEGGSIVATTYLGGEFAVQNYNVMGVAKASLEANVKYLALDLGPDNIRVNAISAGPIRTLSAKGVGGFNTILKEIEERAPLKRNVDQVEVGKTAAYLLSDLSSGVTGENIHVDSG

> <PDB ID(s) of Target Chain>
3GNS,3GNT,3GR6,4ALI,4ALJ,4ALK,4ALL,4ALM,4ALN,4BNF,4BNG,4BNH,4BNI,4BNJ,4BNK,4BNL,4BNM,4BNN,4CUZ,4CV0,4CV1,4D41,4D42,4D43,4D44,4D45,4FS3,4NZ9,6TBB,6TBC,6YUR

> <UniProt (SwissProt) Recommended Name of Target Chain>
Enoyl-[acyl-carrier-protein] reductase [NADPH] FabI

> <UniProt (SwissProt) Entry Name of Target Chain>
FABI_STAAR

> <UniProt (SwissProt) Primary ID of Target Chain>
Q6GI75

> <UniProt (SwissProt) Secondary ID(s) of Target Chain>


> <UniProt (SwissProt) Alternative ID(s) of Target Chain>


> <UniProt (TrEMBL) Submitted Name of Target Chain>


> <UniProt (TrEMBL) Entry Name of Target Chain>


> <UniProt (TrEMBL) Primary ID of Target Chain>


> <UniProt (TrEMBL) Secondary ID(s) of Target Chain>


> <UniProt (TrEMBL) Alternative ID(s) of Target Chain>


$$$$
BindingDB_50452511_mol_1

Vconf v2.0 Academic SN VC001-00000579
 39 41  0  0  0  0  0  0  0  0999 V2000
    3.8820   -2.7690    0.5980 C   0  0  0  0  0  0  0  0  0  0  0
    3.9560   -1.3620    0.5980 C   0  0  0  0  0  0  0  0  0  0  0
    2.6670   -3.3590    0.6490 N   0  0  0  0  0  0  0  0  0  0  0
    2.7390   -0.6510    0.6440 C   0  0  0  0  0  0  0  0  0  0  0
    1.5570   -1.3200    0.6890 N   0  0  0  0  0  0  0  0  0  0  0
    1.5060   -2.6730    0.6940 C   0  0  0  0  0  0  0  0  0  0  0
    5.0980   -0.7510    0.5450 C   0  0  0  0  0  0  0  0  0  0  0
    4.9680   -3.5860    0.5530 N   0  0  0  0  0  0  0  0  0  0  0
    6.1140   -0.2220    0.4980 N   0  0  0  0  0  0  0  0  0  0  0
    2.7150    0.7040    0.6440 O   0  0  0  0  0  0  0  0  0  0  0
    0.2400   -3.4190    0.7030 C   0  0  0  0  0  0  0  0  0  0  0
    8.1640   -6.2870   -0.5600 N   0  0  0  0  0  0  0  0  0  0  0
    6.1070   -5.7130    0.5270 C   0  0  0  0  0  0  0  0  0  0  0
    4.8150   -5.0040    0.5380 C   0  0  0  0  0  0  0  0  0  0  0
    0.0820   -4.2040   -0.5370 C   0  0  0  0  0  0  0  0  0  0  0
    6.9960   -5.5950   -0.5590 C   0  0  0  0  0  0  0  0  0  0  0
    8.5320   -7.1120    0.4530 C   0  0  0  0  0  0  0  0  0  0  0
    6.4710   -6.5640    1.5890 C   0  0  0  0  0  0  0  0  0  0  0
   -0.1330   -3.5480   -1.7660 C   0  0  0  0  0  0  0  0  0  0  0
    0.1660   -5.6110   -0.5130 C   0  0  0  0  0  0  0  0  0  0  0
    7.6840   -7.2700    1.5600 C   0  0  0  0  0  0  0  0  0  0  0
    0.0380   -6.3510   -1.6990 C   0  0  0  0  0  0  0  0  0  0  0
   -0.2630   -4.2860   -2.9530 C   0  0  0  0  0  0  0  0  0  0  0
   -0.1790   -5.6890   -2.9200 C   0  0  0  0  0  0  0  0  0  0  0
    5.8600   -3.1990    0.5260 H   0  0  0  0  0  0  0  0  0  0  0
    1.8170    1.0930    0.6570 H   0  0  0  0  0  0  0  0  0  0  0
    0.2410   -4.0770    1.5740 H   0  0  0  0  0  0  0  0  0  0  0
   -0.5940   -2.7250    0.8030 H   0  0  0  0  0  0  0  0  0  0  0
    4.2380   -5.3060    1.4160 H   0  0  0  0  0  0  0  0  0  0  0
    4.2510   -5.3000   -0.3490 H   0  0  0  0  0  0  0  0  0  0  0
    6.7580   -4.9990   -1.3520 H   0  0  0  0  0  0  0  0  0  0  0
    9.4160   -7.6210    0.4060 H   0  0  0  0  0  0  0  0  0  0  0
    5.8440   -6.6760    2.3860 H   0  0  0  0  0  0  0  0  0  0  0
   -0.1900   -2.5290   -1.7920 H   0  0  0  0  0  0  0  0  0  0  0
    0.3320   -6.0950    0.3700 H   0  0  0  0  0  0  0  0  0  0  0
    7.9400   -7.8950    2.3270 H   0  0  0  0  0  0  0  0  0  0  0
    0.1060   -7.3680   -1.6730 H   0  0  0  0  0  0  0  0  0  0  0
   -0.4140   -3.8020   -3.8380 H   0  0  0  0  0  0  0  0  0  0  0
   -0.2750   -6.2260   -3.7810 H   0  0  0  0  0  0  0  0  0  0  0
  1  2  1  0  0  0  0
  1  3  2  0  0  0  0
  1  8  1  0  0  0  0
  2  4  2  0  0  0  0
  2  7  1  0  0  0  0
  3  6  1  0  0  0  0
  4  5  1  0  0  0  0
  4 10  1  0  0  0  0
  5  6  2  0  0  0  0
  6 11  1  0  0  0  0
  7  9  3  0  0  0  0
  8 14  1  0  0  0  0
  8 25  1  0  0  0  0
 10 26  1  0  0  0  0
 11 15  1  0  0  0  0
 11 27  1  0  0  0  0
 11 28  1  0  0  0  0
 12 16  1  0  0  0  0
 12 17  2  0  0  0  0
 13 14  1  0  0  0  0
 13 16  2  0  0  0  0
 13 18  1  0  0  0  0
 14 29  1  0  0  0  0
 14 30  1  0  0  0  0
 15 19  2  0  0  0  0
 15 20  1  0  0  0  0
 16 31  1  0  0  0  0
 17 21  1  0  0  0  0
 17 32  1  0  0  0  0
 18 21  2  0  0  0  0
 18 33  1  0  0  0  0
 19 23  1  0  0  0  0
 19 34  1  0  0  0  0
 20 22  2  0  0  0  0
 20 35  1  0  0  0  0
 21 36  1  0  0  0  0
 22 24  1  0  0  0  0
 22 37  1  0  0  0  0
 23 24  2  0  0  0  0
 23 38  1  0  0  0  0
 24 39  1  0  0  0  0
M  END
> <From>
www.bindingDB.org

> <BindingDB Reactant_set_id>
51108790

> <Ligand InChI>
InChI=1S/C19H20ClNO2/c1-23-18-9-5-3-7-16(18)15-10-11-21(13-15)19(22)12-14-6-2-4-8-17(14)20/h2-9,15H,10-13H2,1H3

> <Ligand InChI Key>
LLYPNBGGJXSVQL-UHFFFAOYSA-N

> <BindingDB MonomerID>
50452511

> <BindingDB Ligand Name>
CHEMBL4204517

> <Target Name>
Enoyl-[acyl-carrier-protein] reductase [NADPH] FabI [9-251]

> <Target Source Organism According to Curator or DataSource>
Staphylococcus aureus

> <Ki (nM)>
 200

> <IC50 (nM)>


> <Kd (nM)>


> <EC50 (nM)>


> <kon (M-1-s-1)>


> <koff (s-1)>


> <pH>


> <Temp C>


> <Curation/DataSource>
ChEMBL

> <Article DOI>
10.1016/j.bmc.2017.11.018

> <BindingDB Entry DOI>
10.7270/Q2QF8WF7

> <PMID>
29162308

> <PubChem AID>


> <Patent Number>


> <Authors>
Kwon, J; Mistry, T; Ren, J; Johnson, ME; Mehboob, S

> <Institution>
Novalex Therapeutics

> <Link to Ligand in BindingDB>
http://www.bindingdb.org/bind/chemsearch/marvin/MolStructure.jsp?monomerid=50452511

> <Link to Ligand-Target Pair in BindingDB>
http://www.bindingdb.org/jsp/dbsearch/PrimarySearch_ki.jsp?energyterm=kJ/mole&tag=pol&polymerid=50004708&target=Enoyl-%5Bacyl-carrier-protein%5D+reductase+%5BNADPH%5D+FabI+%5B9-251%5D&column=ki&startPg=0&Increment=50&submit=Search

> <Link to Ligand-Target Pair in BindingDB>
http://www.bindingdb.org/jsp/dbsearch/PrimarySearch_ki.jsp?energyterm=kJ/mole&tag=r21&monomerid=50452511&enzyme=Enoyl-%5Bacyl-carrier-protein%5D+reductase+%5BNADPH%5D+FabI+%5B9-251%5D&column=ki&startPg=0&Increment=50&submit=Search

> <Ligand HET ID in PDB>


> <PDB ID(s) for Ligand-Target Complex>


> <PubChem CID of Ligand>
122243063

> <PubChem SID of Ligand>
433921367

> <ChEBI ID of Ligand>


> <ChEMBL ID of Ligand>


> <DrugBank ID of Ligand>


> <IUPHAR_GRAC ID of Ligand>


> <KEGG ID of Ligand>


> <ZINC ID of Ligand>


> <Number of Protein Chains in Target (bigger than 1 implies a multichain complex)>
1

> <BindingDB Target Chain Sequence>
YVIMGIANKRSIAFGVAKVLDQLGAKLVFTYRKERSRKELEKLLEQLNQPEAHLYQIDVQSDEEVINGFEQIGKDVGNIDGVYHSIAFANMEDLRGRFSETSREGFLLAQDISSYSLTIVAHEAKKLMPEGGSIVATTYLGGEFAVQNYNVMGVAKASLEANVKYLALDLGPDNIRVNAISAGPIRTLSAKGVGGFNTILKEIEERAPLKRNVDQVEVGKTAAYLLSDLSSGVTGENIHVDSG

> <PDB ID(s) of Target Chain>
3GNS,3GNT,3GR6,4ALI,4ALJ,4ALK,4ALL,4ALM,4ALN,4BNF,4BNG,4BNH,4BNI,4BNJ,4BNK,4BNL,4BNM,4BNN,4CUZ,4CV0,4CV1,4D41,4D42,4D43,4D44,4D45,4FS3,4NZ9,6TBB,6TBC,6YUR

> <UniProt (SwissProt) Recommended Name of Target Chain>
Enoyl-[acyl-carrier-protein] reductase [NADPH] FabI

> <UniProt (SwissProt) Entry Name of Target Chain>
FABI_STAAR

> <UniProt (SwissProt) Primary ID of Target Chain>
Q6GI75

> <UniProt (SwissProt) Secondary ID(s) of Target Chain>


> <UniProt (SwissProt) Alternative ID(s) of Target Chain>


> <UniProt (TrEMBL) Submitted Name of Target Chain>


> <UniProt (TrEMBL) Entry Name of Target Chain>


> <UniProt (TrEMBL) Primary ID of Target Chain>


> <UniProt (TrEMBL) Secondary ID(s) of Target Chain>


> <UniProt (TrEMBL) Alternative ID(s) of Target Chain>


$$$$
BindingDB_50452502_mol_1

Vconf v2.0 Academic SN VC001-00000579
 23 23  0  0  0  0  0  0  0  0999 V2000
    3.9780   -2.3970    0.5660 C   0  0  0  0  0  0  0  0  0  0  0
    3.9070   -3.8010    0.5570 C   0  0  0  0  0  0  0  0  0  0  0
    2.6910   -4.4030    0.5020 N   0  0  0  0  0  0  0  0  0  0  0
    2.7760   -1.6820    0.5220 C   0  0  0  0  0  0  0  0  0  0  0
    1.5770   -2.3410    0.4680 N   0  0  0  0  0  0  0  0  0  0  0
    1.5410   -3.7190    0.4580 C   0  0  0  0  0  0  0  0  0  0  0
    5.1190   -1.7950    0.6090 C   0  0  0  0  0  0  0  0  0  0  0
    6.1630   -1.2520    0.6490 N   0  0  0  0  0  0  0  0  0  0  0
    2.7440   -0.3230    0.5230 O   0  0  0  0  0  0  0  0  0  0  0
    5.0180   -4.6040    0.6020 N   0  0  0  0  0  0  0  0  0  0  0
    0.2630   -4.4320    0.4000 C   0  0  0  0  0  0  0  0  0  0  0
    4.8860   -6.0170    0.6000 C   0  0  0  0  0  0  0  0  0  0  0
    6.2550   -6.7200    0.6520 C   0  0  0  0  0  0  0  0  0  0  0
    1.8540    0.0890    0.5030 H   0  0  0  0  0  0  0  0  0  0  0
    5.8920   -4.1980    0.6390 H   0  0  0  0  0  0  0  0  0  0  0
   -0.5600   -3.7290    0.3510 H   0  0  0  0  0  0  0  0  0  0  0
    0.2470   -5.0780   -0.4850 H   0  0  0  0  0  0  0  0  0  0  0
    0.1610   -5.0560    1.2950 H   0  0  0  0  0  0  0  0  0  0  0
    4.3060   -6.3310    1.4630 H   0  0  0  0  0  0  0  0  0  0  0
    4.3730   -6.3340   -0.3030 H   0  0  0  0  0  0  0  0  0  0  0
    6.0980   -7.8070    0.6430 H   0  0  0  0  0  0  0  0  0  0  0
    6.8610   -6.4500   -0.2150 H   0  0  0  0  0  0  0  0  0  0  0
    6.7920   -6.4550    1.5650 H   0  0  0  0  0  0  0  0  0  0  0
  1  2  1  0  0  0  0
  1  4  2  0  0  0  0
  1  7  1  0  0  0  0
  2  3  2  0  0  0  0
  2 10  1  0  0  0  0
  3  6  1  0  0  0  0
  4  5  1  0  0  0  0
  4  9  1  0  0  0  0
  5  6  2  0  0  0  0
  6 11  1  0  0  0  0
  7  8  3  0  0  0  0
  9 14  1  0  0  0  0
 10 12  1  0  0  0  0
 10 15  1  0  0  0  0
 11 16  1  0  0  0  0
 11 17  1  0  0  0  0
 11 18  1  0  0  0  0
 12 13  1  0  0  0  0
 12 19  1  0  0  0  0
 12 20  1  0  0  0  0
 13 21  1  0  0  0  0
 13 22  1  0  0  0  0
 13 23  1  0  0  0  0
M  END
> <From>
www.bindingDB.org

> <BindingDB Reactant_set_id>
51108798

> <Ligand InChI>
InChI=1S/C20H21N3O2/c1-15(24)22-19-9-7-16(13-21-19)8-10-20(25)23-12-11-18(14-23)17-5-3-2-4-6-17/h2-10,13,18H,11-12,14H2,1H3,(H,21,22,24)/b10-8+

> <Ligand InChI Key>
FYJBWZGKTKRUOL-CSKARUKUSA-N

> <BindingDB MonomerID>
50452502

> <BindingDB Ligand Name>
CHEMBL4209594

> <Target Name>
Enoyl-[acyl-carrier-protein] reductase [NADPH] FabI [9-251]

> <Target Source Organism According to Curator or DataSource>
Staphylococcus aureus

> <Ki (nM)>
 400

> <IC50 (nM)>


> <Kd (nM)>


> <EC50 (nM)>


> <kon (M-1-s-1)>


> <koff (s-1)>


> <pH>


> <Temp C>


> <Curation/DataSource>
ChEMBL

> <Article DOI>
10.1016/j.bmc.2017.11.018

> <BindingDB Entry DOI>
10.7270/Q2QF8WF7

> <PMID>
29162308

> <PubChem AID>


> <Patent Number>


> <Authors>
Kwon, J; Mistry, T; Ren, J; Johnson, ME; Mehboob, S

> <Institution>
Novalex Therapeutics

> <Link to Ligand in BindingDB>
http://www.bindingdb.org/bind/chemsearch/marvin/MolStructure.jsp?monomerid=50452502

> <Link to Ligand-Target Pair in BindingDB>
http://www.bindingdb.org/jsp/dbsearch/PrimarySearch_ki.jsp?energyterm=kJ/mole&tag=pol&polymerid=50004708&target=Enoyl-%5Bacyl-carrier-protein%5D+reductase+%5BNADPH%5D+FabI+%5B9-251%5D&column=ki&startPg=0&Increment=50&submit=Search

> <Link to Ligand-Target Pair in BindingDB>
http://www.bindingdb.org/jsp/dbsearch/PrimarySearch_ki.jsp?energyterm=kJ/mole&tag=r21&monomerid=50452502&enzyme=Enoyl-%5Bacyl-carrier-protein%5D+reductase+%5BNADPH%5D+FabI+%5B9-251%5D&column=ki&startPg=0&Increment=50&submit=Search

> <Ligand HET ID in PDB>


> <PDB ID(s) for Ligand-Target Complex>


> <PubChem CID of Ligand>
122243059

> <PubChem SID of Ligand>
433921358

> <ChEBI ID of Ligand>


> <ChEMBL ID of Ligand>


> <DrugBank ID of Ligand>


> <IUPHAR_GRAC ID of Ligand>


> <KEGG ID of Ligand>


> <ZINC ID of Ligand>


> <Number of Protein Chains in Target (bigger than 1 implies a multichain complex)>
1

> <BindingDB Target Chain Sequence>
YVIMGIANKRSIAFGVAKVLDQLGAKLVFTYRKERSRKELEKLLEQLNQPEAHLYQIDVQSDEEVINGFEQIGKDVGNIDGVYHSIAFANMEDLRGRFSETSREGFLLAQDISSYSLTIVAHEAKKLMPEGGSIVATTYLGGEFAVQNYNVMGVAKASLEANVKYLALDLGPDNIRVNAISAGPIRTLSAKGVGGFNTILKEIEERAPLKRNVDQVEVGKTAAYLLSDLSSGVTGENIHVDSG

> <PDB ID(s) of Target Chain>
3GNS,3GNT,3GR6,4ALI,4ALJ,4ALK,4ALL,4ALM,4ALN,4BNF,4BNG,4BNH,4BNI,4BNJ,4BNK,4BNL,4BNM,4BNN,4CUZ,4CV0,4CV1,4D41,4D42,4D43,4D44,4D45,4FS3,4NZ9,6TBB,6TBC,6YUR

> <UniProt (SwissProt) Recommended Name of Target Chain>
Enoyl-[acyl-carrier-protein] reductase [NADPH] FabI

> <UniProt (SwissProt) Entry Name of Target Chain>
FABI_STAAR

> <UniProt (SwissProt) Primary ID of Target Chain>
Q6GI75

> <UniProt (SwissProt) Secondary ID(s) of Target Chain>


> <UniProt (SwissProt) Alternative ID(s) of Target Chain>


> <UniProt (TrEMBL) Submitted Name of Target Chain>


> <UniProt (TrEMBL) Entry Name of Target Chain>


> <UniProt (TrEMBL) Primary ID of Target Chain>


> <UniProt (TrEMBL) Secondary ID(s) of Target Chain>


> <UniProt (TrEMBL) Alternative ID(s) of Target Chain>


$$$$
BindingDB_50452501_mol_1

Vconf v2.0 Academic SN VC001-00000579
 32 33  0  0  0  0  0  0  0  0999 V2000
    3.7390   -2.8530    0.5990 C   0  0  0  0  0  0  0  0  0  0  0
    3.9590   -1.4610    0.5730 C   0  0  0  0  0  0  0  0  0  0  0
    2.4700   -3.3310    0.6480 N   0  0  0  0  0  0  0  0  0  0  0
    2.8190   -0.6370    0.6020 C   0  0  0  0  0  0  0  0  0  0  0
    1.5800   -1.1780    0.6500 N   0  0  0  0  0  0  0  0  0  0  0
    1.3920   -2.5170    0.6730 C   0  0  0  0  0  0  0  0  0  0  0
    2.9120    0.7110    0.5810 O   0  0  0  0  0  0  0  0  0  0  0
    4.7700   -3.7290    0.5730 N   0  0  0  0  0  0  0  0  0  0  0
    5.6730   -0.7230    0.5060 Br  0  0  0  0  0  0  0  0  0  0  0
    4.5940   -5.1370    0.6000 C   0  0  0  0  0  0  0  0  0  0  0
    0.0450   -3.0840    0.7240 C   0  0  0  0  0  0  0  0  0  0  0
    5.8530   -7.2950    0.5360 C   0  0  0  0  0  0  0  0  0  0  0
    5.9700   -5.8230    0.5400 C   0  0  0  0  0  0  0  0  0  0  0
    6.2430   -8.0470   -0.5910 C   0  0  0  0  0  0  0  0  0  0  0
    5.3560   -7.9690    1.6710 C   0  0  0  0  0  0  0  0  0  0  0
    5.2450   -9.3700    1.6770 C   0  0  0  0  0  0  0  0  0  0  0
    6.1320   -9.4480   -0.5870 C   0  0  0  0  0  0  0  0  0  0  0
    5.6330  -10.1100    0.5470 C   0  0  0  0  0  0  0  0  0  0  0
    2.0470    1.1680    0.6060 H   0  0  0  0  0  0  0  0  0  0  0
    5.6740   -3.3780    0.5350 H   0  0  0  0  0  0  0  0  0  0  0
    4.0770   -5.4180    1.5200 H   0  0  0  0  0  0  0  0  0  0  0
    3.9960   -5.4460   -0.2600 H   0  0  0  0  0  0  0  0  0  0  0
   -0.6980   -2.2860    0.7390 H   0  0  0  0  0  0  0  0  0  0  0
   -0.1170   -3.7080   -0.1550 H   0  0  0  0  0  0  0  0  0  0  0
   -0.0600   -3.6900    1.6230 H   0  0  0  0  0  0  0  0  0  0  0
    6.4820   -5.4830   -0.3630 H   0  0  0  0  0  0  0  0  0  0  0
    6.5640   -5.5150    1.4030 H   0  0  0  0  0  0  0  0  0  0  0
    6.6080   -7.5750   -1.4200 H   0  0  0  0  0  0  0  0  0  0  0
    5.0740   -7.4390    2.4970 H   0  0  0  0  0  0  0  0  0  0  0
    4.8830   -9.8500    2.5010 H   0  0  0  0  0  0  0  0  0  0  0
    6.4140   -9.9840   -1.4080 H   0  0  0  0  0  0  0  0  0  0  0
    5.5530  -11.1270    0.5510 H   0  0  0  0  0  0  0  0  0  0  0
  1  2  1  0  0  0  0
  1  3  2  0  0  0  0
  1  8  1  0  0  0  0
  2  4  2  0  0  0  0
  2  9  1  0  0  0  0
  3  6  1  0  0  0  0
  4  5  1  0  0  0  0
  4  7  1  0  0  0  0
  5  6  2  0  0  0  0
  6 11  1  0  0  0  0
  7 19  1  0  0  0  0
  8 10  1  0  0  0  0
  8 20  1  0  0  0  0
 10 13  1  0  0  0  0
 10 21  1  0  0  0  0
 10 22  1  0  0  0  0
 11 23  1  0  0  0  0
 11 24  1  0  0  0  0
 11 25  1  0  0  0  0
 12 13  1  0  0  0  0
 12 14  2  0  0  0  0
 12 15  1  0  0  0  0
 13 26  1  0  0  0  0
 13 27  1  0  0  0  0
 14 17  1  0  0  0  0
 14 28  1  0  0  0  0
 15 16  2  0  0  0  0
 15 29  1  0  0  0  0
 16 18  1  0  0  0  0
 16 30  1  0  0  0  0
 17 18  2  0  0  0  0
 17 31  1  0  0  0  0
 18 32  1  0  0  0  0
M  END
> <From>
www.bindingDB.org

> <BindingDB Reactant_set_id>
51108816

> <Ligand InChI>
InChI=1S/C21H21N3O4/c1-14(25)23-20-6-2-15(11-22-20)3-7-21(26)24-9-8-17(12-24)16-4-5-18-19(10-16)28-13-27-18/h2-7,10-11,17H,8-9,12-13H2,1H3,(H,22,23,25)/b7-3+

> <Ligand InChI Key>
BSCWVPNVBCOQFK-XVNBXDOJSA-N

> <BindingDB MonomerID>
50452501

> <BindingDB Ligand Name>
CHEMBL4204415

> <Target Name>
Enoyl-[acyl-carrier-protein] reductase [NADPH] FabI [9-251]

> <Target Source Organism According to Curator or DataSource>
Staphylococcus aureus

> <Ki (nM)>
 400

> <IC50 (nM)>


> <Kd (nM)>


> <EC50 (nM)>


> <kon (M-1-s-1)>


> <koff (s-1)>


> <pH>


> <Temp C>


> <Curation/DataSource>
ChEMBL

> <Article DOI>
10.1016/j.bmc.2017.11.018

> <BindingDB Entry DOI>
10.7270/Q2QF8WF7

> <PMID>
29162308

> <PubChem AID>


> <Patent Number>


> <Authors>
Kwon, J; Mistry, T; Ren, J; Johnson, ME; Mehboob, S

> <Institution>
Novalex Therapeutics

> <Link to Ligand in BindingDB>
http://www.bindingdb.org/bind/chemsearch/marvin/MolStructure.jsp?monomerid=50452501

> <Link to Ligand-Target Pair in BindingDB>
http://www.bindingdb.org/jsp/dbsearch/PrimarySearch_ki.jsp?energyterm=kJ/mole&tag=pol&polymerid=50004708&target=Enoyl-%5Bacyl-carrier-protein%5D+reductase+%5BNADPH%5D+FabI+%5B9-251%5D&column=ki&startPg=0&Increment=50&submit=Search

> <Link to Ligand-Target Pair in BindingDB>
http://www.bindingdb.org/jsp/dbsearch/PrimarySearch_ki.jsp?energyterm=kJ/mole&tag=r21&monomerid=50452501&enzyme=Enoyl-%5Bacyl-carrier-protein%5D+reductase+%5BNADPH%5D+FabI+%5B9-251%5D&column=ki&startPg=0&Increment=50&submit=Search

> <Ligand HET ID in PDB>


> <PDB ID(s) for Ligand-Target Complex>


> <PubChem CID of Ligand>
122243066

> <PubChem SID of Ligand>
433921357

> <ChEBI ID of Ligand>


> <ChEMBL ID of Ligand>


> <DrugBank ID of Ligand>


> <IUPHAR_GRAC ID of Ligand>


> <KEGG ID of Ligand>


> <ZINC ID of Ligand>


> <Number of Protein Chains in Target (bigger than 1 implies a multichain complex)>
1

> <BindingDB Target Chain Sequence>
YVIMGIANKRSIAFGVAKVLDQLGAKLVFTYRKERSRKELEKLLEQLNQPEAHLYQIDVQSDEEVINGFEQIGKDVGNIDGVYHSIAFANMEDLRGRFSETSREGFLLAQDISSYSLTIVAHEAKKLMPEGGSIVATTYLGGEFAVQNYNVMGVAKASLEANVKYLALDLGPDNIRVNAISAGPIRTLSAKGVGGFNTILKEIEERAPLKRNVDQVEVGKTAAYLLSDLSSGVTGENIHVDSG

> <PDB ID(s) of Target Chain>
3GNS,3GNT,3GR6,4ALI,4ALJ,4ALK,4ALL,4ALM,4ALN,4BNF,4BNG,4BNH,4BNI,4BNJ,4BNK,4BNL,4BNM,4BNN,4CUZ,4CV0,4CV1,4D41,4D42,4D43,4D44,4D45,4FS3,4NZ9,6TBB,6TBC,6YUR

> <UniProt (SwissProt) Recommended Name of Target Chain>
Enoyl-[acyl-carrier-protein] reductase [NADPH] FabI

> <UniProt (SwissProt) Entry Name of Target Chain>
FABI_STAAR

> <UniProt (SwissProt) Primary ID of Target Chain>
Q6GI75

> <UniProt (SwissProt) Secondary ID(s) of Target Chain>


> <UniProt (SwissProt) Alternative ID(s) of Target Chain>


> <UniProt (TrEMBL) Submitted Name of Target Chain>


> <UniProt (TrEMBL) Entry Name of Target Chain>


> <UniProt (TrEMBL) Primary ID of Target Chain>


> <UniProt (TrEMBL) Secondary ID(s) of Target Chain>


> <UniProt (TrEMBL) Alternative ID(s) of Target Chain>


$$$$
BindingDB_50452479_mol_1

Vconf v2.0 Academic SN VC001-00000579
 41 44  0  0  0  0  0  0  0  0999 V2000
    6.5590   -0.9960    0.9770 N   0  0  0  0  0  0  0  0  0  0  0
    6.4010    1.4630   -0.3930 C   0  0  0  0  0  0  0  0  0  0  0
    6.5520    1.4780    1.0860 C   0  0  1  0  0  0  0  0  0  0  0
    6.1390    0.2620   -1.0990 C   0  0  0  0  0  0  0  0  0  0  0
    6.0710    0.1640    1.7460 C   0  0  0  0  0  0  0  0  0  0  0
    5.9930   -1.0350   -0.3940 C   0  0  2  0  0  0  0  0  0  0  0
    7.9470    1.8000    1.4950 C   0  0  0  0  0  0  0  0  0  0  0
    6.3830   -2.2740    1.6940 C   0  0  0  0  0  0  0  0  0  0  0
    6.5200    2.6730   -1.1100 C   0  0  0  0  0  0  0  0  0  0  0
    5.9970    0.2980   -2.5010 C   0  0  0  0  0  0  0  0  0  0  0
    4.5120   -1.4800   -0.3960 C   0  0  0  0  0  0  0  0  0  0  0
    8.2090    2.9600    2.2560 C   0  0  0  0  0  0  0  0  0  0  0
    9.0300    0.9630    1.1450 C   0  0  0  0  0  0  0  0  0  0  0
    4.9100   -2.7050    1.7620 C   0  0  0  0  0  0  0  0  0  0  0
    6.3800    2.6970   -2.5070 C   0  0  0  0  0  0  0  0  0  0  0
    6.1180    1.5080   -3.2030 C   0  0  0  0  0  0  0  0  0  0  0
    4.3420   -2.8140    0.3430 C   0  0  0  0  0  0  0  0  0  0  0
   10.3400    1.2760    1.5450 C   0  0  0  0  0  0  0  0  0  0  0
    9.5180    3.2760    2.6580 C   0  0  0  0  0  0  0  0  0  0  0
   10.5840    2.4340    2.3030 C   0  0  0  0  0  0  0  0  0  0  0
    5.8820    2.2530    1.4670 H   0  0  0  0  0  0  0  0  0  0  0
    6.5680   -1.7830   -0.9440 H   0  0  0  0  0  0  0  0  0  0  0
    4.9810    0.1600    1.7760 H   0  0  0  0  0  0  0  0  0  0  0
    6.4350    0.1110    2.7740 H   0  0  0  0  0  0  0  0  0  0  0
    6.7780   -2.1850    2.7070 H   0  0  0  0  0  0  0  0  0  0  0
    6.9500   -3.0470    1.1740 H   0  0  0  0  0  0  0  0  0  0  0
    6.7090    3.5440   -0.6120 H   0  0  0  0  0  0  0  0  0  0  0
    5.8050   -0.5630   -3.0160 H   0  0  0  0  0  0  0  0  0  0  0
    3.8900   -0.7240    0.0860 H   0  0  0  0  0  0  0  0  0  0  0
    4.1660   -1.6100   -1.4230 H   0  0  0  0  0  0  0  0  0  0  0
    7.4420    3.5790    2.5220 H   0  0  0  0  0  0  0  0  0  0  0
    8.8660    0.1200    0.5930 H   0  0  0  0  0  0  0  0  0  0  0
    4.8410   -3.6750    2.2540 H   0  0  0  0  0  0  0  0  0  0  0
    4.3360   -1.9750    2.3350 H   0  0  0  0  0  0  0  0  0  0  0
    6.4690    3.5770   -3.0140 H   0  0  0  0  0  0  0  0  0  0  0
    6.0140    1.5220   -4.2180 H   0  0  0  0  0  0  0  0  0  0  0
    4.8710   -3.5980   -0.2000 H   0  0  0  0  0  0  0  0  0  0  0
    3.2830   -3.0680    0.3940 H   0  0  0  0  0  0  0  0  0  0  0
   11.1130    0.6640    1.2850 H   0  0  0  0  0  0  0  0  0  0  0
    9.6940    4.1170    3.2080 H   0  0  0  0  0  0  0  0  0  0  0
   11.5350    2.6620    2.5940 H   0  0  0  0  0  0  0  0  0  0  0
  1  5  1  0  0  0  0
  1  6  1  0  0  0  0
  1  8  1  0  0  0  0
  2  3  1  0  0  0  0
  2  4  1  0  0  0  0
  2  9  2  0  0  0  0
  3  5  1  0  0  0  0
  3  7  1  6  0  0  0
  3 21  1  1  0  0  0
  4  6  1  0  0  0  0
  4 10  2  0  0  0  0
  5 23  1  0  0  0  0
  5 24  1  0  0  0  0
  6 11  1  0  0  0  0
  6 22  1  6  0  0  0
  7 12  2  0  0  0  0
  7 13  1  0  0  0  0
  8 14  1  0  0  0  0
  8 25  1  0  0  0  0
  8 26  1  0  0  0  0
  9 15  1  0  0  0  0
  9 27  1  0  0  0  0
 10 16  1  0  0  0  0
 10 28  1  0  0  0  0
 11 17  1  0  0  0  0
 11 29  1  0  0  0  0
 11 30  1  0  0  0  0
 12 19  1  0  0  0  0
 12 31  1  0  0  0  0
 13 18  2  0  0  0  0
 13 32  1  0  0  0  0
 14 17  1  0  0  0  0
 14 33  1  0  0  0  0
 14 34  1  0  0  0  0
 15 16  2  0  0  0  0
 15 35  1  0  0  0  0
 16 36  1  0  0  0  0
 17 37  1  0  0  0  0
 17 38  1  0  0  0  0
 18 20  1  0  0  0  0
 18 39  1  0  0  0  0
 19 20  2  0  0  0  0
 19 40  1  0  0  0  0
 20 41  1  0  0  0  0
M  END
> <From>
www.bindingDB.org

> <BindingDB Reactant_set_id>
51108762

> <Ligand InChI>
InChI=1S/C19H17ClFNO3/c20-15-2-1-3-16(21)14(15)9-19(23)22-7-6-13(10-22)12-4-5-17-18(8-12)25-11-24-17/h1-5,8,13H,6-7,9-11H2

> <Ligand InChI Key>
MBOJITLKCHBRAJ-UHFFFAOYSA-N

> <BindingDB MonomerID>
50452479

> <BindingDB Ligand Name>
CHEMBL4210008

> <Target Name>
Enoyl-[acyl-carrier-protein] reductase [NADPH] FabI [9-251]

> <Target Source Organism According to Curator or DataSource>
Staphylococcus aureus

> <Ki (nM)>
 700

> <IC50 (nM)>


> <Kd (nM)>


> <EC50 (nM)>


> <kon (M-1-s-1)>


> <koff (s-1)>


> <pH>


> <Temp C>


> <Curation/DataSource>
ChEMBL

> <Article DOI>
10.1016/j.bmc.2017.11.018

> <BindingDB Entry DOI>
10.7270/Q2QF8WF7

> <PMID>
29162308

> <PubChem AID>


> <Patent Number>


> <Authors>
Kwon, J; Mistry, T; Ren, J; Johnson, ME; Mehboob, S

> <Institution>
Novalex Therapeutics

> <Link to Ligand in BindingDB>
http://www.bindingdb.org/bind/chemsearch/marvin/MolStructure.jsp?monomerid=50452479

> <Link to Ligand-Target Pair in BindingDB>
http://www.bindingdb.org/jsp/dbsearch/PrimarySearch_ki.jsp?energyterm=kJ/mole&tag=pol&polymerid=50004708&target=Enoyl-%5Bacyl-carrier-protein%5D+reductase+%5BNADPH%5D+FabI+%5B9-251%5D&column=ki&startPg=0&Increment=50&submit=Search

> <Link to Ligand-Target Pair in BindingDB>
http://www.bindingdb.org/jsp/dbsearch/PrimarySearch_ki.jsp?energyterm=kJ/mole&tag=r21&monomerid=50452479&enzyme=Enoyl-%5Bacyl-carrier-protein%5D+reductase+%5BNADPH%5D+FabI+%5B9-251%5D&column=ki&startPg=0&Increment=50&submit=Search

> <Ligand HET ID in PDB>


> <PDB ID(s) for Ligand-Target Complex>


> <PubChem CID of Ligand>
91630757

> <PubChem SID of Ligand>
433921345

> <ChEBI ID of Ligand>


> <ChEMBL ID of Ligand>


> <DrugBank ID of Ligand>


> <IUPHAR_GRAC ID of Ligand>


> <KEGG ID of Ligand>


> <ZINC ID of Ligand>


> <Number of Protein Chains in Target (bigger than 1 implies a multichain complex)>
1

> <BindingDB Target Chain Sequence>
YVIMGIANKRSIAFGVAKVLDQLGAKLVFTYRKERSRKELEKLLEQLNQPEAHLYQIDVQSDEEVINGFEQIGKDVGNIDGVYHSIAFANMEDLRGRFSETSREGFLLAQDISSYSLTIVAHEAKKLMPEGGSIVATTYLGGEFAVQNYNVMGVAKASLEANVKYLALDLGPDNIRVNAISAGPIRTLSAKGVGGFNTILKEIEERAPLKRNVDQVEVGKTAAYLLSDLSSGVTGENIHVDSG

> <PDB ID(s) of Target Chain>
3GNS,3GNT,3GR6,4ALI,4ALJ,4ALK,4ALL,4ALM,4ALN,4BNF,4BNG,4BNH,4BNI,4BNJ,4BNK,4BNL,4BNM,4BNN,4CUZ,4CV0,4CV1,4D41,4D42,4D43,4D44,4D45,4FS3,4NZ9,6TBB,6TBC,6YUR

> <UniProt (SwissProt) Recommended Name of Target Chain>
Enoyl-[acyl-carrier-protein] reductase [NADPH] FabI

> <UniProt (SwissProt) Entry Name of Target Chain>
FABI_STAAR

> <UniProt (SwissProt) Primary ID of Target Chain>
Q6GI75

> <UniProt (SwissProt) Secondary ID(s) of Target Chain>


> <UniProt (SwissProt) Alternative ID(s) of Target Chain>


> <UniProt (TrEMBL) Submitted Name of Target Chain>


> <UniProt (TrEMBL) Entry Name of Target Chain>


> <UniProt (TrEMBL) Primary ID of Target Chain>


> <UniProt (TrEMBL) Secondary ID(s) of Target Chain>


> <UniProt (TrEMBL) Alternative ID(s) of Target Chain>


$$$$
BindingDB_50452494_mol_1

Vconf v2.0 Academic SN VC001-00000579
 59 63  0  0  0  0  0  0  0  0999 V2000
    2.2670   -1.7910    0.5510 C   0  0  0  0  0  0  0  0  0  0  0
    1.5460   -2.9760    0.4040 C   0  0  0  0  0  0  0  0  0  0  0
    3.6960   -2.0300    0.7320 C   0  0  1  0  0  0  0  0  0  0  0
    7.2270   -3.6730    7.0230 C   0  0  0  0  0  0  0  0  0  0  0
    2.4010   -4.1690    0.4740 C   0  0  1  0  0  0  0  0  0  0  0
    4.1860   -1.5430    2.0460 N   0  0  0  0  0  0  0  0  0  0  0
    7.6890   -2.8000    6.1190 N   0  0  0  0  0  0  0  0  0  0  0
    3.8280   -3.5560    0.5010 C   0  0  0  0  0  0  0  0  0  0  0
    7.5580   -4.8950    6.7140 N   0  0  0  0  0  0  0  0  0  0  0
    5.5670   -1.6290    4.5850 N   0  0  0  0  0  0  0  0  0  0  0
    0.1550   -2.9410    0.1970 C   0  0  0  0  0  0  0  0  0  0  0
    6.3220   -3.2470    8.4360 S   0  0  0  0  0  0  0  0  0  0  0
    2.1760   -5.1090    1.6090 C   0  0  0  0  0  0  0  0  0  0  0
    1.6200   -0.5440    0.5210 C   0  0  0  0  0  0  0  0  0  0  0
    7.4970   -1.3920    6.1510 C   0  0  0  0  0  0  0  0  0  0  0
    5.6590   -1.6020    2.1160 C   0  0  0  0  0  0  0  0  0  0  0
    3.6000   -2.2250    3.2210 C   0  0  0  0  0  0  0  0  0  0  0
    1.3290   -4.8370    2.7090 C   0  0  0  0  0  0  0  0  0  0  0
    2.8700   -6.3380    1.5880 C   0  0  0  0  0  0  0  0  0  0  0
    6.0340   -1.0200    5.8490 C   0  0  0  0  0  0  0  0  0  0  0
    4.0950   -1.5570    4.5100 C   0  0  0  0  0  0  0  0  0  0  0
    6.1520   -0.9450    3.4130 C   0  0  0  0  0  0  0  0  0  0  0
    0.2260   -0.5010    0.3280 C   0  0  0  0  0  0  0  0  0  0  0
   -0.5040   -1.6970    0.1640 C   0  0  0  0  0  0  0  0  0  0  0
    1.8790   -6.9850    3.7140 C   0  0  0  0  0  0  0  0  0  0  0
    8.2850   -4.9430    5.5400 C   0  0  0  0  0  0  0  0  0  0  0
    2.7250   -7.2700    2.6300 C   0  0  0  0  0  0  0  0  0  0  0
    1.1820   -5.7660    3.7530 C   0  0  0  0  0  0  0  0  0  0  0
    8.3990   -3.4730    5.1020 C   0  0  0  0  0  0  0  0  0  0  0
   -0.3910    0.6460    0.2970 F   0  0  0  0  0  0  0  0  0  0  0
    1.7430   -7.8470    4.6820 F   0  0  0  0  0  0  0  0  0  0  0
    4.2320   -1.5060   -0.0620 H   0  0  0  0  0  0  0  0  0  0  0
    2.2740   -4.7180   -0.4620 H   0  0  0  0  0  0  0  0  0  0  0
    4.2910   -3.7170   -0.4740 H   0  0  0  0  0  0  0  0  0  0  0
    4.4650   -4.0160    1.2560 H   0  0  0  0  0  0  0  0  0  0  0
   -0.3720   -3.8070    0.0800 H   0  0  0  0  0  0  0  0  0  0  0
    6.1420   -4.4910    8.9570 H   0  0  0  0  0  0  0  0  0  0  0
    2.1570    0.3170    0.6380 H   0  0  0  0  0  0  0  0  0  0  0
    8.1430   -0.9190    5.4120 H   0  0  0  0  0  0  0  0  0  0  0
    7.7710   -1.0060    7.1350 H   0  0  0  0  0  0  0  0  0  0  0
    6.0890   -1.0650    1.2700 H   0  0  0  0  0  0  0  0  0  0  0
    6.0030   -2.6370    2.0900 H   0  0  0  0  0  0  0  0  0  0  0
    3.8850   -3.2770    3.2390 H   0  0  0  0  0  0  0  0  0  0  0
    2.5130   -2.1510    3.1960 H   0  0  0  0  0  0  0  0  0  0  0
    0.8210   -3.9550    2.7650 H   0  0  0  0  0  0  0  0  0  0  0
    3.4900   -6.5570    0.8070 H   0  0  0  0  0  0  0  0  0  0  0
    5.9400    0.0660    5.8020 H   0  0  0  0  0  0  0  0  0  0  0
    5.4180   -1.3800    6.6740 H   0  0  0  0  0  0  0  0  0  0  0
    3.6600   -2.0840    5.3600 H   0  0  0  0  0  0  0  0  0  0  0
    3.7650   -0.5170    4.5280 H   0  0  0  0  0  0  0  0  0  0  0
    7.2380   -1.0210    3.4380 H   0  0  0  0  0  0  0  0  0  0  0
    5.8690    0.1090    3.4110 H   0  0  0  0  0  0  0  0  0  0  0
   -1.5140   -1.6640    0.0210 H   0  0  0  0  0  0  0  0  0  0  0
    9.2720   -5.3690    5.7220 H   0  0  0  0  0  0  0  0  0  0  0
    7.7530   -5.5280    4.7890 H   0  0  0  0  0  0  0  0  0  0  0
    3.2360   -8.1530    2.5950 H   0  0  0  0  0  0  0  0  0  0  0
    0.5680   -5.5500    4.5400 H   0  0  0  0  0  0  0  0  0  0  0
    7.9250   -3.3190    4.1320 H   0  0  0  0  0  0  0  0  0  0  0
    9.4410   -3.1520    5.0770 H   0  0  0  0  0  0  0  0  0  0  0
  1  2  1  0  0  0  0
  1  3  1  0  0  0  0
  1 14  2  0  0  0  0
  2  5  1  0  0  0  0
  2 11  2  0  0  0  0
  3  6  1  0  0  0  0
  3  8  1  0  0  0  0
  3 32  1  0  0  0  0
  4  7  1  0  0  0  0
  4  9  2  0  0  0  0
  4 12  1  0  0  0  0
  5  8  1  0  0  0  0
  5 13  1  0  0  0  0
  5 33  1  0  0  0  0
  6 16  1  0  0  0  0
  6 17  1  0  0  0  0
  7 15  1  0  0  0  0
  7 29  1  0  0  0  0
  8 34  1  0  0  0  0
  8 35  1  0  0  0  0
  9 26  1  0  0  0  0
 10 20  1  0  0  0  0
 10 21  1  0  0  0  0
 10 22  1  0  0  0  0
 11 24  1  0  0  0  0
 11 36  1  0  0  0  0
 12 37  1  0  0  0  0
 13 18  2  0  0  0  0
 13 19  1  0  0  0  0
 14 23  1  0  0  0  0
 14 38  1  0  0  0  0
 15 20  1  0  0  0  0
 15 39  1  0  0  0  0
 15 40  1  0  0  0  0
 16 22  1  0  0  0  0
 16 41  1  0  0  0  0
 16 42  1  0  0  0  0
 17 21  1  0  0  0  0
 17 43  1  0  0  0  0
 17 44  1  0  0  0  0
 18 28  1  0  0  0  0
 18 45  1  0  0  0  0
 19 27  2  0  0  0  0
 19 46  1  0  0  0  0
 20 47  1  0  0  0  0
 20 48  1  0  0  0  0
 21 49  1  0  0  0  0
 21 50  1  0  0  0  0
 22 51  1  0  0  0  0
 22 52  1  0  0  0  0
 23 24  2  0  0  0  0
 23 30  1  0  0  0  0
 24 53  1  0  0  0  0
 25 27  1  0  0  0  0
 25 28  2  0  0  0  0
 25 31  1  0  0  0  0
 26 29  1  0  0  0  0
 26 54  1  0  0  0  0
 26 55  1  0  0  0  0
 27 56  1  0  0  0  0
 28 57  1  0  0  0  0
 29 58  1  0  0  0  0
 29 59  1  0  0  0  0
M  END
> <From>
www.bindingDB.org

> <BindingDB Reactant_set_id>
51108767

> <Ligand InChI>
InChI=1S/C18H17F2NO/c19-16-7-4-8-17(20)15(16)11-18(22)21-10-9-14(12-21)13-5-2-1-3-6-13/h1-8,14H,9-12H2

> <Ligand InChI Key>
KRVZKTUHBRUFMA-UHFFFAOYSA-N

> <BindingDB MonomerID>
50452494

> <BindingDB Ligand Name>
CHEMBL4204858

> <Target Name>
Enoyl-[acyl-carrier-protein] reductase [NADPH] FabI [9-251]

> <Target Source Organism According to Curator or DataSource>
Staphylococcus aureus

> <Ki (nM)>
 700

> <IC50 (nM)>


> <Kd (nM)>


> <EC50 (nM)>


> <kon (M-1-s-1)>


> <koff (s-1)>


> <pH>


> <Temp C>


> <Curation/DataSource>
ChEMBL

> <Article DOI>
10.1016/j.bmc.2017.11.018

> <BindingDB Entry DOI>
10.7270/Q2QF8WF7

> <PMID>
29162308

> <PubChem AID>


> <Patent Number>


> <Authors>
Kwon, J; Mistry, T; Ren, J; Johnson, ME; Mehboob, S

> <Institution>
Novalex Therapeutics

> <Link to Ligand in BindingDB>
http://www.bindingdb.org/bind/chemsearch/marvin/MolStructure.jsp?monomerid=50452494

> <Link to Ligand-Target Pair in BindingDB>
http://www.bindingdb.org/jsp/dbsearch/PrimarySearch_ki.jsp?energyterm=kJ/mole&tag=pol&polymerid=50004708&target=Enoyl-%5Bacyl-carrier-protein%5D+reductase+%5BNADPH%5D+FabI+%5B9-251%5D&column=ki&startPg=0&Increment=50&submit=Search

> <Link to Ligand-Target Pair in BindingDB>
http://www.bindingdb.org/jsp/dbsearch/PrimarySearch_ki.jsp?energyterm=kJ/mole&tag=r21&monomerid=50452494&enzyme=Enoyl-%5Bacyl-carrier-protein%5D+reductase+%5BNADPH%5D+FabI+%5B9-251%5D&column=ki&startPg=0&Increment=50&submit=Search

> <Ligand HET ID in PDB>


> <PDB ID(s) for Ligand-Target Complex>


> <PubChem CID of Ligand>
119099081

> <PubChem SID of Ligand>
433921350

> <ChEBI ID of Ligand>


> <ChEMBL ID of Ligand>


> <DrugBank ID of Ligand>


> <IUPHAR_GRAC ID of Ligand>


> <KEGG ID of Ligand>


> <ZINC ID of Ligand>


> <Number of Protein Chains in Target (bigger than 1 implies a multichain complex)>
1

> <BindingDB Target Chain Sequence>
YVIMGIANKRSIAFGVAKVLDQLGAKLVFTYRKERSRKELEKLLEQLNQPEAHLYQIDVQSDEEVINGFEQIGKDVGNIDGVYHSIAFANMEDLRGRFSETSREGFLLAQDISSYSLTIVAHEAKKLMPEGGSIVATTYLGGEFAVQNYNVMGVAKASLEANVKYLALDLGPDNIRVNAISAGPIRTLSAKGVGGFNTILKEIEERAPLKRNVDQVEVGKTAAYLLSDLSSGVTGENIHVDSG

> <PDB ID(s) of Target Chain>
3GNS,3GNT,3GR6,4ALI,4ALJ,4ALK,4ALL,4ALM,4ALN,4BNF,4BNG,4BNH,4BNI,4BNJ,4BNK,4BNL,4BNM,4BNN,4CUZ,4CV0,4CV1,4D41,4D42,4D43,4D44,4D45,4FS3,4NZ9,6TBB,6TBC,6YUR

> <UniProt (SwissProt) Recommended Name of Target Chain>
Enoyl-[acyl-carrier-protein] reductase [NADPH] FabI

> <UniProt (SwissProt) Entry Name of Target Chain>
FABI_STAAR

> <UniProt (SwissProt) Primary ID of Target Chain>
Q6GI75

> <UniProt (SwissProt) Secondary ID(s) of Target Chain>


> <UniProt (SwissProt) Alternative ID(s) of Target Chain>


> <UniProt (TrEMBL) Submitted Name of Target Chain>


> <UniProt (TrEMBL) Entry Name of Target Chain>


> <UniProt (TrEMBL) Primary ID of Target Chain>


> <UniProt (TrEMBL) Secondary ID(s) of Target Chain>


> <UniProt (TrEMBL) Alternative ID(s) of Target Chain>


$$$$
BindingDB_50452512_mol_1

Vconf v2.0 Academic SN VC001-00000579
 38 39  0  0  0  0  0  0  0  0999 V2000
    3.1270   -3.5920    0.5900 N   0  0  0  0  0  0  0  0  0  0  0
    4.3300   -2.9780    0.5640 C   0  0  0  0  0  0  0  0  0  0  0
    4.3790   -1.5730    0.5820 C   0  0  0  0  0  0  0  0  0  0  0
    1.9490   -2.9380    0.6350 C   0  0  0  0  0  0  0  0  0  0  0
    1.9760   -1.5800    0.6570 N   0  0  0  0  0  0  0  0  0  0  0
    3.1460   -0.8900    0.6300 C   0  0  0  0  0  0  0  0  0  0  0
    5.5110   -0.9350    0.5520 C   0  0  0  0  0  0  0  0  0  0  0
    5.4270   -3.7760    0.5080 N   0  0  0  0  0  0  0  0  0  0  0
    6.5190   -0.3820    0.5260 N   0  0  0  0  0  0  0  0  0  0  0
    0.6860   -3.7150    0.6620 C   0  0  0  0  0  0  0  0  0  0  0
    3.0930    0.4630    0.6490 O   0  0  0  0  0  0  0  0  0  0  0
    8.1910   -7.4550    1.1920 N   0  0  0  0  0  0  0  0  0  0  0
    6.5650   -5.9030    0.3570 C   0  0  0  0  0  0  0  0  0  0  0
    5.2810   -5.1970    0.4760 C   0  0  0  0  0  0  0  0  0  0  0
    7.0110   -6.8020    1.3470 C   0  0  0  0  0  0  0  0  0  0  0
   -0.0820   -3.3900    1.9590 C   0  0  0  0  0  0  0  0  0  0  0
   -0.1660   -3.3560   -0.5730 C   0  0  0  0  0  0  0  0  0  0  0
    0.9480   -5.2420    0.6310 C   0  0  0  0  0  0  0  0  0  0  0
    8.9780   -7.2880    0.1000 C   0  0  0  0  0  0  0  0  0  0  0
    7.3570   -5.7350   -0.7940 C   0  0  0  0  0  0  0  0  0  0  0
    8.5730   -6.4230   -0.9280 C   0  0  0  0  0  0  0  0  0  0  0
    6.3100   -3.3730    0.4730 H   0  0  0  0  0  0  0  0  0  0  0
    2.1890    0.8400    0.6630 H   0  0  0  0  0  0  0  0  0  0  0
    4.7570   -5.5140    1.3780 H   0  0  0  0  0  0  0  0  0  0  0
    4.6630   -5.4720   -0.3800 H   0  0  0  0  0  0  0  0  0  0  0
    6.4460   -6.9730    2.1800 H   0  0  0  0  0  0  0  0  0  0  0
   -1.0060   -3.9670    2.0010 H   0  0  0  0  0  0  0  0  0  0  0
    0.5320   -3.6460    2.8250 H   0  0  0  0  0  0  0  0  0  0  0
   -0.3270   -2.3290    1.9950 H   0  0  0  0  0  0  0  0  0  0  0
   -1.1090   -3.9020   -0.5490 H   0  0  0  0  0  0  0  0  0  0  0
   -0.3800   -2.2870   -0.5860 H   0  0  0  0  0  0  0  0  0  0  0
    0.3720   -3.6240   -1.4840 H   0  0  0  0  0  0  0  0  0  0  0
    0.0010   -5.7860    0.6430 H   0  0  0  0  0  0  0  0  0  0  0
    1.4960   -5.5100   -0.2740 H   0  0  0  0  0  0  0  0  0  0  0
    1.5370   -5.5390    1.5010 H   0  0  0  0  0  0  0  0  0  0  0
    9.8580   -7.7960    0.0230 H   0  0  0  0  0  0  0  0  0  0  0
    7.0390   -5.1180   -1.5420 H   0  0  0  0  0  0  0  0  0  0  0
    9.1450   -6.3020   -1.7650 H   0  0  0  0  0  0  0  0  0  0  0
  1  2  2  0  0  0  0
  1  4  1  0  0  0  0
  2  3  1  0  0  0  0
  2  8  1  0  0  0  0
  3  6  2  0  0  0  0
  3  7  1  0  0  0  0
  4  5  2  0  0  0  0
  4 10  1  0  0  0  0
  5  6  1  0  0  0  0
  6 11  1  0  0  0  0
  7  9  3  0  0  0  0
  8 14  1  0  0  0  0
  8 22  1  0  0  0  0
 10 16  1  0  0  0  0
 10 17  1  0  0  0  0
 10 18  1  0  0  0  0
 11 23  1  0  0  0  0
 12 15  1  0  0  0  0
 12 19  2  0  0  0  0
 13 14  1  0  0  0  0
 13 15  2  0  0  0  0
 13 20  1  0  0  0  0
 14 24  1  0  0  0  0
 14 25  1  0  0  0  0
 15 26  1  0  0  0  0
 16 27  1  0  0  0  0
 16 28  1  0  0  0  0
 16 29  1  0  0  0  0
 17 30  1  0  0  0  0
 17 31  1  0  0  0  0
 17 32  1  0  0  0  0
 18 33  1  0  0  0  0
 18 34  1  0  0  0  0
 18 35  1  0  0  0  0
 19 21  1  0  0  0  0
 19 36  1  0  0  0  0
 20 21  2  0  0  0  0
 20 37  1  0  0  0  0
 21 38  1  0  0  0  0
M  END
> <From>
www.bindingDB.org

> <BindingDB Reactant_set_id>
51108794

> <Ligand InChI>
InChI=1S/C19H17F2NO3/c20-15-2-1-3-16(21)14(15)9-19(23)22-7-6-13(10-22)12-4-5-17-18(8-12)25-11-24-17/h1-5,8,13H,6-7,9-11H2

> <Ligand InChI Key>
LTCLFSYURZQSIA-UHFFFAOYSA-N

> <BindingDB MonomerID>
50452512

> <BindingDB Ligand Name>
CHEMBL4205638

> <Target Name>
Enoyl-[acyl-carrier-protein] reductase [NADPH] FabI [9-251]

> <Target Source Organism According to Curator or DataSource>
Staphylococcus aureus

> <Ki (nM)>
 900

> <IC50 (nM)>


> <Kd (nM)>


> <EC50 (nM)>


> <kon (M-1-s-1)>


> <koff (s-1)>


> <pH>


> <Temp C>


> <Curation/DataSource>
ChEMBL

> <Article DOI>
10.1016/j.bmc.2017.11.018

> <BindingDB Entry DOI>
10.7270/Q2QF8WF7

> <PMID>
29162308

> <PubChem AID>


> <Patent Number>


> <Authors>
Kwon, J; Mistry, T; Ren, J; Johnson, ME; Mehboob, S

> <Institution>
Novalex Therapeutics

> <Link to Ligand in BindingDB>
http://www.bindingdb.org/bind/chemsearch/marvin/MolStructure.jsp?monomerid=50452512

> <Link to Ligand-Target Pair in BindingDB>
http://www.bindingdb.org/jsp/dbsearch/PrimarySearch_ki.jsp?energyterm=kJ/mole&tag=pol&polymerid=50004708&target=Enoyl-%5Bacyl-carrier-protein%5D+reductase+%5BNADPH%5D+FabI+%5B9-251%5D&column=ki&startPg=0&Increment=50&submit=Search

> <Link to Ligand-Target Pair in BindingDB>
http://www.bindingdb.org/jsp/dbsearch/PrimarySearch_ki.jsp?energyterm=kJ/mole&tag=r21&monomerid=50452512&enzyme=Enoyl-%5Bacyl-carrier-protein%5D+reductase+%5BNADPH%5D+FabI+%5B9-251%5D&column=ki&startPg=0&Increment=50&submit=Search

> <Ligand HET ID in PDB>


> <PDB ID(s) for Ligand-Target Complex>


> <PubChem CID of Ligand>
119106339

> <PubChem SID of Ligand>
433921368

> <ChEBI ID of Ligand>


> <ChEMBL ID of Ligand>


> <DrugBank ID of Ligand>


> <IUPHAR_GRAC ID of Ligand>


> <KEGG ID of Ligand>


> <ZINC ID of Ligand>


> <Number of Protein Chains in Target (bigger than 1 implies a multichain complex)>
1

> <BindingDB Target Chain Sequence>
YVIMGIANKRSIAFGVAKVLDQLGAKLVFTYRKERSRKELEKLLEQLNQPEAHLYQIDVQSDEEVINGFEQIGKDVGNIDGVYHSIAFANMEDLRGRFSETSREGFLLAQDISSYSLTIVAHEAKKLMPEGGSIVATTYLGGEFAVQNYNVMGVAKASLEANVKYLALDLGPDNIRVNAISAGPIRTLSAKGVGGFNTILKEIEERAPLKRNVDQVEVGKTAAYLLSDLSSGVTGENIHVDSG

> <PDB ID(s) of Target Chain>
3GNS,3GNT,3GR6,4ALI,4ALJ,4ALK,4ALL,4ALM,4ALN,4BNF,4BNG,4BNH,4BNI,4BNJ,4BNK,4BNL,4BNM,4BNN,4CUZ,4CV0,4CV1,4D41,4D42,4D43,4D44,4D45,4FS3,4NZ9,6TBB,6TBC,6YUR

> <UniProt (SwissProt) Recommended Name of Target Chain>
Enoyl-[acyl-carrier-protein] reductase [NADPH] FabI

> <UniProt (SwissProt) Entry Name of Target Chain>
FABI_STAAR

> <UniProt (SwissProt) Primary ID of Target Chain>
Q6GI75

> <UniProt (SwissProt) Secondary ID(s) of Target Chain>


> <UniProt (SwissProt) Alternative ID(s) of Target Chain>


> <UniProt (TrEMBL) Submitted Name of Target Chain>


> <UniProt (TrEMBL) Entry Name of Target Chain>


> <UniProt (TrEMBL) Primary ID of Target Chain>


> <UniProt (TrEMBL) Secondary ID(s) of Target Chain>


> <UniProt (TrEMBL) Alternative ID(s) of Target Chain>


$$$$
BindingDB_50452516_mol_1

Vconf v2.0 Academic SN VC001-00000579
 29 30  0  0  0  0  0  0  0  0999 V2000
    3.8700   -2.7740    0.5790 C   0  0  0  0  0  0  0  0  0  0  0
    3.9470   -1.3660    0.5840 C   0  0  0  0  0  0  0  0  0  0  0
    2.6550   -3.3670    0.6170 N   0  0  0  0  0  0  0  0  0  0  0
    2.7310   -0.6560    0.6250 C   0  0  0  0  0  0  0  0  0  0  0
    1.5510   -1.3240    0.6620 N   0  0  0  0  0  0  0  0  0  0  0
    1.4990   -2.6760    0.6610 C   0  0  0  0  0  0  0  0  0  0  0
    5.0870   -0.7480    0.5470 C   0  0  0  0  0  0  0  0  0  0  0
    4.9540   -3.5930    0.5470 N   0  0  0  0  0  0  0  0  0  0  0
    6.0980   -0.2100    0.5140 N   0  0  0  0  0  0  0  0  0  0  0
    2.6990    0.6960    0.6300 O   0  0  0  0  0  0  0  0  0  0  0
    8.4860   -7.1100    0.5790 N   0  0  0  0  0  0  0  0  0  0  0
    4.8030   -5.0120    0.5150 C   0  0  0  0  0  0  0  0  0  0  0
    6.0960   -5.7180    0.5480 C   0  0  0  0  0  0  0  0  0  0  0
    0.2370   -3.4100    0.7090 C   0  0  0  0  0  0  0  0  0  0  0
    8.2370   -6.2690   -0.4550 C   0  0  0  0  0  0  0  0  0  0  0
    7.6110   -7.3000    1.5980 C   0  0  0  0  0  0  0  0  0  0  0
    6.3920   -6.6030    1.6030 C   0  0  0  0  0  0  0  0  0  0  0
    7.0300   -5.5510   -0.4930 C   0  0  0  0  0  0  0  0  0  0  0
    5.8470   -3.2100    0.5450 H   0  0  0  0  0  0  0  0  0  0  0
    1.7960    1.0710    0.6590 H   0  0  0  0  0  0  0  0  0  0  0
    4.1910   -5.3190    1.3680 H   0  0  0  0  0  0  0  0  0  0  0
    4.2760   -5.2950   -0.3990 H   0  0  0  0  0  0  0  0  0  0  0
   -0.6030   -2.7180    0.7080 H   0  0  0  0  0  0  0  0  0  0  0
    0.1660   -4.0660   -0.1560 H   0  0  0  0  0  0  0  0  0  0  0
    0.2050   -4.0170    1.6100 H   0  0  0  0  0  0  0  0  0  0  0
    8.9200   -6.1650   -1.2060 H   0  0  0  0  0  0  0  0  0  0  0
    7.8310   -7.9510    2.3520 H   0  0  0  0  0  0  0  0  0  0  0
    5.7230   -6.7470    2.3600 H   0  0  0  0  0  0  0  0  0  0  0
    6.8280   -4.9230   -1.2710 H   0  0  0  0  0  0  0  0  0  0  0
  1  2  1  0  0  0  0
  1  3  2  0  0  0  0
  1  8  1  0  0  0  0
  2  4  2  0  0  0  0
  2  7  1  0  0  0  0
  3  6  1  0  0  0  0
  4  5  1  0  0  0  0
  4 10  1  0  0  0  0
  5  6  2  0  0  0  0
  6 14  1  0  0  0  0
  7  9  3  0  0  0  0
  8 12  1  0  0  0  0
  8 19  1  0  0  0  0
 10 20  1  0  0  0  0
 11 15  1  0  0  0  0
 11 16  2  0  0  0  0
 12 13  1  0  0  0  0
 12 21  1  0  0  0  0
 12 22  1  0  0  0  0
 13 17  2  0  0  0  0
 13 18  1  0  0  0  0
 14 23  1  0  0  0  0
 14 24  1  0  0  0  0
 14 25  1  0  0  0  0
 15 18  2  0  0  0  0
 15 26  1  0  0  0  0
 16 17  1  0  0  0  0
 16 27  1  0  0  0  0
 17 28  1  0  0  0  0
 18 29  1  0  0  0  0
M  END
> <From>
www.bindingDB.org

> <BindingDB Reactant_set_id>
51108813

> <Ligand InChI>
InChI=1S/C19H18ClNO3/c20-16-4-2-1-3-14(16)10-19(22)21-8-7-15(11-21)13-5-6-17-18(9-13)24-12-23-17/h1-6,9,15H,7-8,10-12H2

> <Ligand InChI Key>
UTQHYSKDYWZBHC-UHFFFAOYSA-N

> <BindingDB MonomerID>
50452516

> <BindingDB Ligand Name>
CHEMBL4211939

> <Target Name>
Enoyl-[acyl-carrier-protein] reductase [NADPH] FabI [9-251]

> <Target Source Organism According to Curator or DataSource>
Staphylococcus aureus

> <Ki (nM)>
 900

> <IC50 (nM)>


> <Kd (nM)>


> <EC50 (nM)>


> <kon (M-1-s-1)>


> <koff (s-1)>


> <pH>


> <Temp C>


> <Curation/DataSource>
ChEMBL

> <Article DOI>
10.1016/j.bmc.2017.11.018

> <BindingDB Entry DOI>
10.7270/Q2QF8WF7

> <PMID>
29162308

> <PubChem AID>


> <Patent Number>


> <Authors>
Kwon, J; Mistry, T; Ren, J; Johnson, ME; Mehboob, S

> <Institution>
Novalex Therapeutics

> <Link to Ligand in BindingDB>
http://www.bindingdb.org/bind/chemsearch/marvin/MolStructure.jsp?monomerid=50452516

> <Link to Ligand-Target Pair in BindingDB>
http://www.bindingdb.org/jsp/dbsearch/PrimarySearch_ki.jsp?energyterm=kJ/mole&tag=pol&polymerid=50004708&target=Enoyl-%5Bacyl-carrier-protein%5D+reductase+%5BNADPH%5D+FabI+%5B9-251%5D&column=ki&startPg=0&Increment=50&submit=Search

> <Link to Ligand-Target Pair in BindingDB>
http://www.bindingdb.org/jsp/dbsearch/PrimarySearch_ki.jsp?energyterm=kJ/mole&tag=r21&monomerid=50452516&enzyme=Enoyl-%5Bacyl-carrier-protein%5D+reductase+%5BNADPH%5D+FabI+%5B9-251%5D&column=ki&startPg=0&Increment=50&submit=Search

> <Ligand HET ID in PDB>


> <PDB ID(s) for Ligand-Target Complex>


> <PubChem CID of Ligand>
110667412

> <PubChem SID of Ligand>
433921372

> <ChEBI ID of Ligand>


> <ChEMBL ID of Ligand>


> <DrugBank ID of Ligand>


> <IUPHAR_GRAC ID of Ligand>


> <KEGG ID of Ligand>


> <ZINC ID of Ligand>


> <Number of Protein Chains in Target (bigger than 1 implies a multichain complex)>
1

> <BindingDB Target Chain Sequence>
YVIMGIANKRSIAFGVAKVLDQLGAKLVFTYRKERSRKELEKLLEQLNQPEAHLYQIDVQSDEEVINGFEQIGKDVGNIDGVYHSIAFANMEDLRGRFSETSREGFLLAQDISSYSLTIVAHEAKKLMPEGGSIVATTYLGGEFAVQNYNVMGVAKASLEANVKYLALDLGPDNIRVNAISAGPIRTLSAKGVGGFNTILKEIEERAPLKRNVDQVEVGKTAAYLLSDLSSGVTGENIHVDSG

> <PDB ID(s) of Target Chain>
3GNS,3GNT,3GR6,4ALI,4ALJ,4ALK,4ALL,4ALM,4ALN,4BNF,4BNG,4BNH,4BNI,4BNJ,4BNK,4BNL,4BNM,4BNN,4CUZ,4CV0,4CV1,4D41,4D42,4D43,4D44,4D45,4FS3,4NZ9,6TBB,6TBC,6YUR

> <UniProt (SwissProt) Recommended Name of Target Chain>
Enoyl-[acyl-carrier-protein] reductase [NADPH] FabI

> <UniProt (SwissProt) Entry Name of Target Chain>
FABI_STAAR

> <UniProt (SwissProt) Primary ID of Target Chain>
Q6GI75

> <UniProt (SwissProt) Secondary ID(s) of Target Chain>


> <UniProt (SwissProt) Alternative ID(s) of Target Chain>


> <UniProt (TrEMBL) Submitted Name of Target Chain>


> <UniProt (TrEMBL) Entry Name of Target Chain>


> <UniProt (TrEMBL) Primary ID of Target Chain>


> <UniProt (TrEMBL) Secondary ID(s) of Target Chain>


> <UniProt (TrEMBL) Alternative ID(s) of Target Chain>


$$$$
BindingDB_50452506_mol_1

Vconf v2.0 Academic SN VC001-00000579
 32 33  0  0  0  0  0  0  0  0999 V2000
    3.7430   -2.8510    0.5850 C   0  0  0  0  0  0  0  0  0  0  0
    3.9570   -1.4590    0.6130 C   0  0  0  0  0  0  0  0  0  0  0
    2.4760   -3.3360    0.6190 N   0  0  0  0  0  0  0  0  0  0  0
    2.8150   -0.6390    0.6790 C   0  0  0  0  0  0  0  0  0  0  0
    1.5790   -1.1870    0.7110 N   0  0  0  0  0  0  0  0  0  0  0
    1.3950   -2.5260    0.6810 C   0  0  0  0  0  0  0  0  0  0  0
    2.9080    0.7080    0.7130 O   0  0  0  0  0  0  0  0  0  0  0
    4.7790   -3.7190    0.5240 N   0  0  0  0  0  0  0  0  0  0  0
    5.5130   -0.7830    0.5710 Cl  0  0  0  0  0  0  0  0  0  0  0
    4.6110   -5.1280    0.4940 C   0  0  0  0  0  0  0  0  0  0  0
    0.0510   -3.1000    0.7150 C   0  0  0  0  0  0  0  0  0  0  0
    5.8810   -7.2750    0.3300 C   0  0  0  0  0  0  0  0  0  0  0
    5.9910   -5.8050    0.4170 C   0  0  0  0  0  0  0  0  0  0  0
    6.2960   -7.9590   -0.8300 C   0  0  0  0  0  0  0  0  0  0  0
    5.3650   -8.0140    1.4150 C   0  0  0  0  0  0  0  0  0  0  0
    5.2620   -9.4130    1.3390 C   0  0  0  0  0  0  0  0  0  0  0
    6.1930   -9.3590   -0.9080 C   0  0  0  0  0  0  0  0  0  0  0
    5.6750  -10.0860    0.1770 C   0  0  0  0  0  0  0  0  0  0  0
    2.0430    1.1640    0.7590 H   0  0  0  0  0  0  0  0  0  0  0
    5.6800   -3.3610    0.5000 H   0  0  0  0  0  0  0  0  0  0  0
    4.0890   -5.4500    1.3980 H   0  0  0  0  0  0  0  0  0  0  0
    4.0200   -5.4050   -0.3820 H   0  0  0  0  0  0  0  0  0  0  0
   -0.6950   -2.3070    0.7710 H   0  0  0  0  0  0  0  0  0  0  0
   -0.1150   -3.6870   -0.1880 H   0  0  0  0  0  0  0  0  0  0  0
   -0.0450   -3.7450    1.5880 H   0  0  0  0  0  0  0  0  0  0  0
    6.5150   -5.4130   -0.4570 H   0  0  0  0  0  0  0  0  0  0  0
    6.5690   -5.5420    1.3050 H   0  0  0  0  0  0  0  0  0  0  0
    6.6730   -7.4390   -1.6240 H   0  0  0  0  0  0  0  0  0  0  0
    5.0650   -7.5330    2.2640 H   0  0  0  0  0  0  0  0  0  0  0
    4.8870   -9.9410    2.1280 H   0  0  0  0  0  0  0  0  0  0  0
    6.4950   -9.8470   -1.7520 H   0  0  0  0  0  0  0  0  0  0  0
    5.6000  -11.1020    0.1210 H   0  0  0  0  0  0  0  0  0  0  0
  1  2  1  0  0  0  0
  1  3  2  0  0  0  0
  1  8  1  0  0  0  0
  2  4  2  0  0  0  0
  2  9  1  0  0  0  0
  3  6  1  0  0  0  0
  4  5  1  0  0  0  0
  4  7  1  0  0  0  0
  5  6  2  0  0  0  0
  6 11  1  0  0  0  0
  7 19  1  0  0  0  0
  8 10  1  0  0  0  0
  8 20  1  0  0  0  0
 10 13  1  0  0  0  0
 10 21  1  0  0  0  0
 10 22  1  0  0  0  0
 11 23  1  0  0  0  0
 11 24  1  0  0  0  0
 11 25  1  0  0  0  0
 12 13  1  0  0  0  0
 12 14  2  0  0  0  0
 12 15  1  0  0  0  0
 13 26  1  0  0  0  0
 13 27  1  0  0  0  0
 14 17  1  0  0  0  0
 14 28  1  0  0  0  0
 15 16  2  0  0  0  0
 15 29  1  0  0  0  0
 16 18  1  0  0  0  0
 16 30  1  0  0  0  0
 17 18  2  0  0  0  0
 17 31  1  0  0  0  0
 18 32  1  0  0  0  0
M  END
> <From>
www.bindingDB.org

> <BindingDB Reactant_set_id>
51108793

> <Ligand InChI>
InChI=1S/C19H18FNO3/c20-16-4-2-1-3-14(16)10-19(22)21-8-7-15(11-21)13-5-6-17-18(9-13)24-12-23-17/h1-6,9,15H,7-8,10-12H2

> <Ligand InChI Key>
FRTHQVBBVQGYMV-UHFFFAOYSA-N

> <BindingDB MonomerID>
50452506

> <BindingDB Ligand Name>
CHEMBL4216771

> <Target Name>
Enoyl-[acyl-carrier-protein] reductase [NADPH] FabI [9-251]

> <Target Source Organism According to Curator or DataSource>
Staphylococcus aureus

> <Ki (nM)>
 1000

> <IC50 (nM)>


> <Kd (nM)>


> <EC50 (nM)>


> <kon (M-1-s-1)>


> <koff (s-1)>


> <pH>


> <Temp C>


> <Curation/DataSource>
ChEMBL

> <Article DOI>
10.1016/j.bmc.2017.11.018

> <BindingDB Entry DOI>
10.7270/Q2QF8WF7

> <PMID>
29162308

> <PubChem AID>


> <Patent Number>


> <Authors>
Kwon, J; Mistry, T; Ren, J; Johnson, ME; Mehboob, S

> <Institution>
Novalex Therapeutics

> <Link to Ligand in BindingDB>
http://www.bindingdb.org/bind/chemsearch/marvin/MolStructure.jsp?monomerid=50452506

> <Link to Ligand-Target Pair in BindingDB>
http://www.bindingdb.org/jsp/dbsearch/PrimarySearch_ki.jsp?energyterm=kJ/mole&tag=pol&polymerid=50004708&target=Enoyl-%5Bacyl-carrier-protein%5D+reductase+%5BNADPH%5D+FabI+%5B9-251%5D&column=ki&startPg=0&Increment=50&submit=Search

> <Link to Ligand-Target Pair in BindingDB>
http://www.bindingdb.org/jsp/dbsearch/PrimarySearch_ki.jsp?energyterm=kJ/mole&tag=r21&monomerid=50452506&enzyme=Enoyl-%5Bacyl-carrier-protein%5D+reductase+%5BNADPH%5D+FabI+%5B9-251%5D&column=ki&startPg=0&Increment=50&submit=Search

> <Ligand HET ID in PDB>


> <PDB ID(s) for Ligand-Target Complex>


> <PubChem CID of Ligand>
110667410

> <PubChem SID of Ligand>
433921362

> <ChEBI ID of Ligand>


> <ChEMBL ID of Ligand>


> <DrugBank ID of Ligand>


> <IUPHAR_GRAC ID of Ligand>


> <KEGG ID of Ligand>


> <ZINC ID of Ligand>


> <Number of Protein Chains in Target (bigger than 1 implies a multichain complex)>
1

> <BindingDB Target Chain Sequence>
YVIMGIANKRSIAFGVAKVLDQLGAKLVFTYRKERSRKELEKLLEQLNQPEAHLYQIDVQSDEEVINGFEQIGKDVGNIDGVYHSIAFANMEDLRGRFSETSREGFLLAQDISSYSLTIVAHEAKKLMPEGGSIVATTYLGGEFAVQNYNVMGVAKASLEANVKYLALDLGPDNIRVNAISAGPIRTLSAKGVGGFNTILKEIEERAPLKRNVDQVEVGKTAAYLLSDLSSGVTGENIHVDSG

> <PDB ID(s) of Target Chain>
3GNS,3GNT,3GR6,4ALI,4ALJ,4ALK,4ALL,4ALM,4ALN,4BNF,4BNG,4BNH,4BNI,4BNJ,4BNK,4BNL,4BNM,4BNN,4CUZ,4CV0,4CV1,4D41,4D42,4D43,4D44,4D45,4FS3,4NZ9,6TBB,6TBC,6YUR

> <UniProt (SwissProt) Recommended Name of Target Chain>
Enoyl-[acyl-carrier-protein] reductase [NADPH] FabI

> <UniProt (SwissProt) Entry Name of Target Chain>
FABI_STAAR

> <UniProt (SwissProt) Primary ID of Target Chain>
Q6GI75

> <UniProt (SwissProt) Secondary ID(s) of Target Chain>


> <UniProt (SwissProt) Alternative ID(s) of Target Chain>


> <UniProt (TrEMBL) Submitted Name of Target Chain>


> <UniProt (TrEMBL) Entry Name of Target Chain>


> <UniProt (TrEMBL) Primary ID of Target Chain>


> <UniProt (TrEMBL) Secondary ID(s) of Target Chain>


> <UniProt (TrEMBL) Alternative ID(s) of Target Chain>


$$$$
BindingDB_50452510_mol_1

Vconf v2.0 Academic SN VC001-00000579
 32 33  0  0  0  0  0  0  0  0999 V2000
    3.9880   -2.3700    0.5670 C   0  0  0  0  0  0  0  0  0  0  0
    3.9210   -3.7770    0.5470 C   0  0  0  0  0  0  0  0  0  0  0
    2.7050   -4.3740    0.4890 N   0  0  0  0  0  0  0  0  0  0  0
    2.7660   -1.6670    0.5260 C   0  0  0  0  0  0  0  0  0  0  0
    1.5880   -2.3370    0.4690 N   0  0  0  0  0  0  0  0  0  0  0
    1.5470   -3.6900    0.4510 C   0  0  0  0  0  0  0  0  0  0  0
    5.1280   -1.7460    0.6170 C   0  0  0  0  0  0  0  0  0  0  0
    6.1370   -1.1970    0.6620 N   0  0  0  0  0  0  0  0  0  0  0
    2.7260   -0.3110    0.5430 O   0  0  0  0  0  0  0  0  0  0  0
    5.0170   -4.5820    0.5870 N   0  0  0  0  0  0  0  0  0  0  0
    6.0940  -10.2680   -0.7120 N   0  0  0  0  0  0  0  0  0  0  0
    4.8740   -6.0000    0.5370 C   0  0  0  0  0  0  0  0  0  0  0
    0.2930   -4.4390    0.3970 C   0  0  0  0  0  0  0  0  0  0  0
    5.9680   -8.2200    0.5300 C   0  0  0  0  0  0  0  0  0  0  0
    6.3470   -8.9370   -0.6220 C   0  0  0  0  0  0  0  0  0  0  0
    5.4760  -10.9620    0.2750 C   0  0  0  0  0  0  0  0  0  0  0
    6.2070   -6.7630    0.6390 C   0  0  0  0  0  0  0  0  0  0  0
    5.3180   -8.9240    1.5630 C   0  0  0  0  0  0  0  0  0  0  0
    5.0700  -10.3000    1.4440 C   0  0  0  0  0  0  0  0  0  0  0
    1.8240    0.0680    0.5090 H   0  0  0  0  0  0  0  0  0  0  0
    5.9050   -4.1890    0.6450 H   0  0  0  0  0  0  0  0  0  0  0
    4.2260   -6.3150    1.3600 H   0  0  0  0  0  0  0  0  0  0  0
    4.3910   -6.2670   -0.4070 H   0  0  0  0  0  0  0  0  0  0  0
   -0.5530   -3.7540    0.3500 H   0  0  0  0  0  0  0  0  0  0  0
    0.2910   -5.0800   -0.4870 H   0  0  0  0  0  0  0  0  0  0  0
    0.2080   -5.0620    1.2890 H   0  0  0  0  0  0  0  0  0  0  0
    6.8040   -8.4570   -1.3990 H   0  0  0  0  0  0  0  0  0  0  0
    5.3080  -11.9610    0.1670 H   0  0  0  0  0  0  0  0  0  0  0
    6.8680   -6.4260   -0.1620 H   0  0  0  0  0  0  0  0  0  0  0
    6.6850   -6.5420    1.5940 H   0  0  0  0  0  0  0  0  0  0  0
    5.0230   -8.4320    2.4080 H   0  0  0  0  0  0  0  0  0  0  0
    4.6020  -10.8100    2.1930 H   0  0  0  0  0  0  0  0  0  0  0
  1  2  1  0  0  0  0
  1  4  2  0  0  0  0
  1  7  1  0  0  0  0
  2  3  2  0  0  0  0
  2 10  1  0  0  0  0
  3  6  1  0  0  0  0
  4  5  1  0  0  0  0
  4  9  1  0  0  0  0
  5  6  2  0  0  0  0
  6 13  1  0  0  0  0
  7  8  3  0  0  0  0
  9 20  1  0  0  0  0
 10 12  1  0  0  0  0
 10 21  1  0  0  0  0
 11 15  2  0  0  0  0
 11 16  1  0  0  0  0
 12 17  1  0  0  0  0
 12 22  1  0  0  0  0
 12 23  1  0  0  0  0
 13 24  1  0  0  0  0
 13 25  1  0  0  0  0
 13 26  1  0  0  0  0
 14 15  1  0  0  0  0
 14 17  1  0  0  0  0
 14 18  2  0  0  0  0
 15 27  1  0  0  0  0
 16 19  2  0  0  0  0
 16 28  1  0  0  0  0
 17 29  1  0  0  0  0
 17 30  1  0  0  0  0
 18 19  1  0  0  0  0
 18 31  1  0  0  0  0
 19 32  1  0  0  0  0
M  END
> <From>
www.bindingDB.org

> <BindingDB Reactant_set_id>
51108789

> <Ligand InChI>
InChI=1S/C19H19F2NO2/c1-24-17-8-3-2-6-15(17)14-9-10-22(12-14)18(23)11-13-5-4-7-16(20)19(13)21/h2-8,14H,9-12H2,1H3

> <Ligand InChI Key>
CJSHXBNQPCUHJC-UHFFFAOYSA-N

> <BindingDB MonomerID>
50452510

> <BindingDB Ligand Name>
CHEMBL4210599

> <Target Name>
Enoyl-[acyl-carrier-protein] reductase [NADPH] FabI [9-251]

> <Target Source Organism According to Curator or DataSource>
Staphylococcus aureus

> <Ki (nM)>
 1100

> <IC50 (nM)>


> <Kd (nM)>


> <EC50 (nM)>


> <kon (M-1-s-1)>


> <koff (s-1)>


> <pH>


> <Temp C>


> <Curation/DataSource>
ChEMBL

> <Article DOI>
10.1016/j.bmc.2017.11.018

> <BindingDB Entry DOI>
10.7270/Q2QF8WF7

> <PMID>
29162308

> <PubChem AID>


> <Patent Number>


> <Authors>
Kwon, J; Mistry, T; Ren, J; Johnson, ME; Mehboob, S

> <Institution>
Novalex Therapeutics

> <Link to Ligand in BindingDB>
http://www.bindingdb.org/bind/chemsearch/marvin/MolStructure.jsp?monomerid=50452510

> <Link to Ligand-Target Pair in BindingDB>
http://www.bindingdb.org/jsp/dbsearch/PrimarySearch_ki.jsp?energyterm=kJ/mole&tag=pol&polymerid=50004708&target=Enoyl-%5Bacyl-carrier-protein%5D+reductase+%5BNADPH%5D+FabI+%5B9-251%5D&column=ki&startPg=0&Increment=50&submit=Search

> <Link to Ligand-Target Pair in BindingDB>
http://www.bindingdb.org/jsp/dbsearch/PrimarySearch_ki.jsp?energyterm=kJ/mole&tag=r21&monomerid=50452510&enzyme=Enoyl-%5Bacyl-carrier-protein%5D+reductase+%5BNADPH%5D+FabI+%5B9-251%5D&column=ki&startPg=0&Increment=50&submit=Search

> <Ligand HET ID in PDB>


> <PDB ID(s) for Ligand-Target Complex>


> <PubChem CID of Ligand>
119106338

> <PubChem SID of Ligand>
433921366

> <ChEBI ID of Ligand>


> <ChEMBL ID of Ligand>


> <DrugBank ID of Ligand>


> <IUPHAR_GRAC ID of Ligand>


> <KEGG ID of Ligand>


> <ZINC ID of Ligand>


> <Number of Protein Chains in Target (bigger than 1 implies a multichain complex)>
1

> <BindingDB Target Chain Sequence>
YVIMGIANKRSIAFGVAKVLDQLGAKLVFTYRKERSRKELEKLLEQLNQPEAHLYQIDVQSDEEVINGFEQIGKDVGNIDGVYHSIAFANMEDLRGRFSETSREGFLLAQDISSYSLTIVAHEAKKLMPEGGSIVATTYLGGEFAVQNYNVMGVAKASLEANVKYLALDLGPDNIRVNAISAGPIRTLSAKGVGGFNTILKEIEERAPLKRNVDQVEVGKTAAYLLSDLSSGVTGENIHVDSG

> <PDB ID(s) of Target Chain>
3GNS,3GNT,3GR6,4ALI,4ALJ,4ALK,4ALL,4ALM,4ALN,4BNF,4BNG,4BNH,4BNI,4BNJ,4BNK,4BNL,4BNM,4BNN,4CUZ,4CV0,4CV1,4D41,4D42,4D43,4D44,4D45,4FS3,4NZ9,6TBB,6TBC,6YUR

> <UniProt (SwissProt) Recommended Name of Target Chain>
Enoyl-[acyl-carrier-protein] reductase [NADPH] FabI

> <UniProt (SwissProt) Entry Name of Target Chain>
FABI_STAAR

> <UniProt (SwissProt) Primary ID of Target Chain>
Q6GI75

> <UniProt (SwissProt) Secondary ID(s) of Target Chain>


> <UniProt (SwissProt) Alternative ID(s) of Target Chain>


> <UniProt (TrEMBL) Submitted Name of Target Chain>


> <UniProt (TrEMBL) Entry Name of Target Chain>


> <UniProt (TrEMBL) Primary ID of Target Chain>


> <UniProt (TrEMBL) Secondary ID(s) of Target Chain>


> <UniProt (TrEMBL) Alternative ID(s) of Target Chain>


$$$$
BindingDB_51108769_3D

Vconf v2.1
 50 52  0  0  0  0  0  0  0  0999 V2000
   18.8140   -4.6200    0.3860 C   0  0  2  0  0  0  0  0  0  0  0
   19.7640   -5.7600   -0.0170 C   0  0  0  0  0  0  0  0  0  0  0
   21.0190   -5.4040    0.5550 N   0  0  0  0  0  0  0  0  0  0  0
   20.9440   -4.3040    1.4530 C   0  0  0  0  0  0  0  0  0  0  0
   19.4470   -4.0640    1.6670 C   0  0  0  0  0  0  0  0  0  0  0
   17.3950   -5.0240    0.5280 C   0  0  0  0  0  0  0  0  0  0  0
   22.1990   -6.0400    0.2960 C   0  0  0  0  0  0  0  0  0  0  0
   23.2350   -5.6120    0.8570 O   0  0  0  0  0  0  0  0  0  0  0
   22.2860   -7.1510   -0.5690 C   0  0  0  0  0  0  0  0  0  0  0
   23.4900   -7.8100   -0.8490 C   0  0  0  0  0  0  0  0  0  0  0
   17.0090   -6.0210    1.4470 C   0  0  0  0  0  0  0  0  0  0  0
   15.0550   -4.7920   -0.1440 C   0  0  0  0  0  0  0  0  0  0  0
   16.4030   -4.4130   -0.2650 C   0  0  0  0  0  0  0  0  0  0  0
   14.6730   -5.7890    0.7710 C   0  0  0  0  0  0  0  0  0  0  0
   15.6620   -6.4020    1.5680 C   0  0  0  0  0  0  0  0  0  0  0
   23.6330   -8.9290   -1.7080 C   0  0  0  0  0  0  0  0  0  0  0
   22.5630   -9.5380   -2.4000 C   0  0  0  0  0  0  0  0  0  0  0
   22.7870  -10.6050   -3.2060 N   0  0  0  0  0  0  0  0  0  0  0
   24.0130  -11.1540   -3.4050 C   0  0  0  0  0  0  0  0  0  0  0
   25.1140  -10.5890   -2.7410 C   0  0  0  0  0  0  0  0  0  0  0
   24.9170   -9.4830   -1.8990 C   0  0  0  0  0  0  0  0  0  0  0
   24.2220  -12.2210   -4.2140 N   0  0  0  0  0  0  0  0  0  0  0
   23.2820  -12.8860   -4.9280 C   0  0  0  0  0  0  0  0  0  0  0
   23.7090  -14.0200   -5.7480 C   0  0  0  0  0  0  0  0  0  0  0
   22.0680  -12.5790   -4.9200 O   0  0  0  0  0  0  0  0  0  0  0
   13.3460   -6.1070    0.8280 O   0  0  0  0  0  0  0  0  0  0  0
   12.8370   -7.1310    1.6860 C   0  0  0  0  0  0  0  0  0  0  0
   18.9050   -3.8420   -0.3760 H   0  0  0  0  0  0  0  0  0  0  0
   19.4430   -6.7240    0.3810 H   0  0  0  0  0  0  0  0  0  0  0
   19.8250   -5.8080   -1.1060 H   0  0  0  0  0  0  0  0  0  0  0
   21.4180   -4.5360    2.4090 H   0  0  0  0  0  0  0  0  0  0  0
   21.4130   -3.4250    1.0070 H   0  0  0  0  0  0  0  0  0  0  0
   19.2300   -3.0020    1.7910 H   0  0  0  0  0  0  0  0  0  0  0
   19.1190   -4.6200    2.5460 H   0  0  0  0  0  0  0  0  0  0  0
   21.4270   -7.4840   -1.0040 H   0  0  0  0  0  0  0  0  0  0  0
   24.3340   -7.4510   -0.3970 H   0  0  0  0  0  0  0  0  0  0  0
   17.7110   -6.4760    2.0310 H   0  0  0  0  0  0  0  0  0  0  0
   14.3490   -4.3410   -0.7260 H   0  0  0  0  0  0  0  0  0  0  0
   16.6590   -3.6880   -0.9370 H   0  0  0  0  0  0  0  0  0  0  0
   15.4070   -7.1270    2.2380 H   0  0  0  0  0  0  0  0  0  0  0
   21.6090   -9.1920   -2.3100 H   0  0  0  0  0  0  0  0  0  0  0
   26.0510  -10.9750   -2.8660 H   0  0  0  0  0  0  0  0  0  0  0
   25.7260   -9.0820   -1.4220 H   0  0  0  0  0  0  0  0  0  0  0
   25.1340  -12.5410   -4.2920 H   0  0  0  0  0  0  0  0  0  0  0
   22.8510  -14.4530   -6.2640 H   0  0  0  0  0  0  0  0  0  0  0
   24.4370  -13.6820   -6.4850 H   0  0  0  0  0  0  0  0  0  0  0
   24.1630  -14.7790   -5.1100 H   0  0  0  0  0  0  0  0  0  0  0
   11.7570   -7.2010    1.5490 H   0  0  0  0  0  0  0  0  0  0  0
   13.2870   -8.0930    1.4350 H   0  0  0  0  0  0  0  0  0  0  0
   13.0440   -6.8890    2.7300 H   0  0  0  0  0  0  0  0  0  0  0
  1  2  1  0  0  0  0
  1  5  1  0  0  0  0
  1  6  1  0  0  0  0
  1 28  1  0  0  0  0
  2  3  1  0  0  0  0
  2 29  1  0  0  0  0
  2 30  1  0  0  0  0
  3  4  1  0  0  0  0
  3  7  1  0  0  0  0
  4  5  1  0  0  0  0
  4 31  1  0  0  0  0
  4 32  1  0  0  0  0
  5 33  1  0  0  0  0
  5 34  1  0  0  0  0
  6 11  2  0  0  0  0
  6 13  1  0  0  0  0
  7  8  2  0  0  0  0
  7  9  1  0  0  0  0
  9 10  2  0  0  0  0
  9 35  1  0  0  0  0
 10 16  1  0  0  0  0
 10 36  1  0  0  0  0
 11 15  1  0  0  0  0
 11 37  1  0  0  0  0
 12 13  2  0  0  0  0
 12 14  1  0  0  0  0
 12 38  1  0  0  0  0
 13 39  1  0  0  0  0
 14 15  2  0  0  0  0
 14 26  1  0  0  0  0
 15 40  1  0  0  0  0
 16 17  2  0  0  0  0
 16 21  1  0  0  0  0
 17 18  1  0  0  0  0
 17 41  1  0  0  0  0
 18 19  2  0  0  0  0
 19 20  1  0  0  0  0
 19 22  1  0  0  0  0
 20 21  2  0  0  0  0
 20 42  1  0  0  0  0
 21 43  1  0  0  0  0
 22 23  1  0  0  0  0
 22 44  1  0  0  0  0
 23 24  1  0  0  0  0
 23 25  2  0  0  0  0
 24 45  1  0  0  0  0
 24 46  1  0  0  0  0
 24 47  1  0  0  0  0
 26 27  1  0  0  0  0
 27 48  1  0  0  0  0
 27 49  1  0  0  0  0
 27 50  1  0  0  0  0
M  END
> <From>
www.bindingDB.org

> <BindingDB Reactant_set_id>
51108769

> <Ligand InChI>
InChI=1S/C21H23N3O3/c1-15(25)23-20-9-3-16(13-22-20)4-10-21(26)24-12-11-18(14-24)17-5-7-19(27-2)8-6-17/h3-10,13,18H,11-12,14H2,1-2H3,(H,22,23,25)/b10-4+

> <Ligand InChI Key>
JRLIASHBUZHREN-ONNFQVAWSA-N

> <BindingDB MonomerID>
50452496

> <BindingDB Ligand Name>
CHEMBL4217852

> <Target Name>
Enoyl-[acyl-carrier-protein] reductase [NADPH] FabI [9-251]

> <Target Source Organism According to Curator or DataSource>
Staphylococcus aureus

> <Ki (nM)>
 1300

> <IC50 (nM)>


> <Kd (nM)>


> <EC50 (nM)>


> <kon (M-1-s-1)>


> <koff (s-1)>


> <pH>


> <Temp C>


> <Curation/DataSource>
ChEMBL

> <Article DOI>
10.1016/j.bmc.2017.11.018

> <BindingDB Entry DOI>
10.7270/Q2QF8WF7

> <PMID>
29162308

> <PubChem AID>


> <Patent Number>


> <Authors>
Kwon, J; Mistry, T; Ren, J; Johnson, ME; Mehboob, S

> <Institution>
Novalex Therapeutics

> <Link to Ligand in BindingDB>
http://www.bindingdb.org/bind/chemsearch/marvin/MolStructure.jsp?monomerid=50452496

> <Link to Ligand-Target Pair in BindingDB>
http://www.bindingdb.org/jsp/dbsearch/PrimarySearch_ki.jsp?energyterm=kJ/mole&tag=pol&polymerid=50004708&target=Enoyl-%5Bacyl-carrier-protein%5D+reductase+%5BNADPH%5D+FabI+%5B9-251%5D&column=ki&startPg=0&Increment=50&submit=Search

> <Link to Ligand-Target Pair in BindingDB>
http://www.bindingdb.org/jsp/dbsearch/PrimarySearch_ki.jsp?energyterm=kJ/mole&tag=r21&monomerid=50452496&enzyme=Enoyl-%5Bacyl-carrier-protein%5D+reductase+%5BNADPH%5D+FabI+%5B9-251%5D&column=ki&startPg=0&Increment=50&submit=Search

> <Ligand HET ID in PDB>


> <PDB ID(s) for Ligand-Target Complex>


> <PubChem CID of Ligand>
122243075

> <PubChem SID of Ligand>
433921352

> <ChEBI ID of Ligand>


> <ChEMBL ID of Ligand>


> <DrugBank ID of Ligand>


> <IUPHAR_GRAC ID of Ligand>


> <KEGG ID of Ligand>


> <ZINC ID of Ligand>


> <Number of Protein Chains in Target (bigger than 1 implies a multichain complex)>
1

> <BindingDB Target Chain Sequence>
YVIMGIANKRSIAFGVAKVLDQLGAKLVFTYRKERSRKELEKLLEQLNQPEAHLYQIDVQSDEEVINGFEQIGKDVGNIDGVYHSIAFANMEDLRGRFSETSREGFLLAQDISSYSLTIVAHEAKKLMPEGGSIVATTYLGGEFAVQNYNVMGVAKASLEANVKYLALDLGPDNIRVNAISAGPIRTLSAKGVGGFNTILKEIEERAPLKRNVDQVEVGKTAAYLLSDLSSGVTGENIHVDSG

> <PDB ID(s) of Target Chain>
3GNS,3GNT,3GR6,4ALI,4ALJ,4ALK,4ALL,4ALM,4ALN,4BNF,4BNG,4BNH,4BNI,4BNJ,4BNK,4BNL,4BNM,4BNN,4CUZ,4CV0,4CV1,4D41,4D42,4D43,4D44,4D45,4FS3,4NZ9,6TBB,6TBC,6YUR

> <UniProt (SwissProt) Recommended Name of Target Chain>
Enoyl-[acyl-carrier-protein] reductase [NADPH] FabI

> <UniProt (SwissProt) Entry Name of Target Chain>
FABI_STAAR

> <UniProt (SwissProt) Primary ID of Target Chain>
Q6GI75

> <UniProt (SwissProt) Secondary ID(s) of Target Chain>


> <UniProt (SwissProt) Alternative ID(s) of Target Chain>


> <UniProt (TrEMBL) Submitted Name of Target Chain>


> <UniProt (TrEMBL) Entry Name of Target Chain>


> <UniProt (TrEMBL) Primary ID of Target Chain>


> <UniProt (TrEMBL) Secondary ID(s) of Target Chain>


> <UniProt (TrEMBL) Alternative ID(s) of Target Chain>


$$$$
BindingDB_50452515_mol_1

Vconf v2.0 Academic SN VC001-00000579
 26 26  0  0  0  0  0  0  0  0999 V2000
    3.9920   -2.3750    0.5650 C   0  0  0  0  0  0  0  0  0  0  0
    3.9220   -3.7830    0.5500 C   0  0  0  0  0  0  0  0  0  0  0
    2.7080   -4.3830    0.4950 N   0  0  0  0  0  0  0  0  0  0  0
    2.7710   -1.6720    0.5230 C   0  0  0  0  0  0  0  0  0  0  0
    1.5960   -2.3420    0.4690 N   0  0  0  0  0  0  0  0  0  0  0
    1.5510   -3.6940    0.4540 C   0  0  0  0  0  0  0  0  0  0  0
    5.1310   -1.7430    0.6130 C   0  0  0  0  0  0  0  0  0  0  0
    6.1340   -1.1890    0.6550 N   0  0  0  0  0  0  0  0  0  0  0
    2.7260   -0.3180    0.5370 O   0  0  0  0  0  0  0  0  0  0  0
    5.0160   -4.5870    0.5890 N   0  0  0  0  0  0  0  0  0  0  0
    0.2980   -4.4450    0.3990 C   0  0  0  0  0  0  0  0  0  0  0
    4.8810   -6.0070    0.5580 C   0  0  0  0  0  0  0  0  0  0  0
    6.2130   -6.7660    0.6370 C   0  0  0  0  0  0  0  0  0  0  0
    5.9380   -8.2720    0.5440 C   0  0  0  0  0  0  0  0  0  0  0
    1.8210    0.0640    0.5070 H   0  0  0  0  0  0  0  0  0  0  0
    5.9000   -4.1890    0.6380 H   0  0  0  0  0  0  0  0  0  0  0
   -0.5570   -3.7690    0.3520 H   0  0  0  0  0  0  0  0  0  0  0
    0.3060   -5.0820   -0.4860 H   0  0  0  0  0  0  0  0  0  0  0
    0.2210   -5.0650    1.2930 H   0  0  0  0  0  0  0  0  0  0  0
    4.2580   -6.3160    1.4000 H   0  0  0  0  0  0  0  0  0  0  0
    4.3780   -6.2850   -0.3710 H   0  0  0  0  0  0  0  0  0  0  0
    6.8640   -6.4660   -0.1860 H   0  0  0  0  0  0  0  0  0  0  0
    6.7100   -6.5470    1.5840 H   0  0  0  0  0  0  0  0  0  0  0
    6.8720   -8.8290    0.6240 H   0  0  0  0  0  0  0  0  0  0  0
    5.2730   -8.5760    1.3520 H   0  0  0  0  0  0  0  0  0  0  0
    5.4670   -8.5030   -0.4120 H   0  0  0  0  0  0  0  0  0  0  0
  1  2  1  0  0  0  0
  1  4  2  0  0  0  0
  1  7  1  0  0  0  0
  2  3  2  0  0  0  0
  2 10  1  0  0  0  0
  3  6  1  0  0  0  0
  4  5  1  0  0  0  0
  4  9  1  0  0  0  0
  5  6  2  0  0  0  0
  6 11  1  0  0  0  0
  7  8  3  0  0  0  0
  9 15  1  0  0  0  0
 10 12  1  0  0  0  0
 10 16  1  0  0  0  0
 11 17  1  0  0  0  0
 11 18  1  0  0  0  0
 11 19  1  0  0  0  0
 12 13  1  0  0  0  0
 12 20  1  0  0  0  0
 12 21  1  0  0  0  0
 13 14  1  0  0  0  0
 13 22  1  0  0  0  0
 13 23  1  0  0  0  0
 14 24  1  0  0  0  0
 14 25  1  0  0  0  0
 14 26  1  0  0  0  0
M  END
> <From>
www.bindingDB.org

> <BindingDB Reactant_set_id>
51108799

> <Ligand InChI>
InChI=1S/C21H23N3O3/c1-15(25)23-20-9-7-16(13-22-20)8-10-21(26)24-12-11-17(14-24)18-5-3-4-6-19(18)27-2/h3-10,13,17H,11-12,14H2,1-2H3,(H,22,23,25)/b10-8+

> <Ligand InChI Key>
OXMDBWMQMHXHKS-CSKARUKUSA-N

> <BindingDB MonomerID>
50452515

> <BindingDB Ligand Name>
CHEMBL4214096

> <Target Name>
Enoyl-[acyl-carrier-protein] reductase [NADPH] FabI [9-251]

> <Target Source Organism According to Curator or DataSource>
Staphylococcus aureus

> <Ki (nM)>
 1300

> <IC50 (nM)>


> <Kd (nM)>


> <EC50 (nM)>


> <kon (M-1-s-1)>


> <koff (s-1)>


> <pH>


> <Temp C>


> <Curation/DataSource>
ChEMBL

> <Article DOI>
10.1016/j.bmc.2017.11.018

> <BindingDB Entry DOI>
10.7270/Q2QF8WF7

> <PMID>
29162308

> <PubChem AID>


> <Patent Number>


> <Authors>
Kwon, J; Mistry, T; Ren, J; Johnson, ME; Mehboob, S

> <Institution>
Novalex Therapeutics

> <Link to Ligand in BindingDB>
http://www.bindingdb.org/bind/chemsearch/marvin/MolStructure.jsp?monomerid=50452515

> <Link to Ligand-Target Pair in BindingDB>
http://www.bindingdb.org/jsp/dbsearch/PrimarySearch_ki.jsp?energyterm=kJ/mole&tag=pol&polymerid=50004708&target=Enoyl-%5Bacyl-carrier-protein%5D+reductase+%5BNADPH%5D+FabI+%5B9-251%5D&column=ki&startPg=0&Increment=50&submit=Search

> <Link to Ligand-Target Pair in BindingDB>
http://www.bindingdb.org/jsp/dbsearch/PrimarySearch_ki.jsp?energyterm=kJ/mole&tag=r21&monomerid=50452515&enzyme=Enoyl-%5Bacyl-carrier-protein%5D+reductase+%5BNADPH%5D+FabI+%5B9-251%5D&column=ki&startPg=0&Increment=50&submit=Search

> <Ligand HET ID in PDB>


> <PDB ID(s) for Ligand-Target Complex>


> <PubChem CID of Ligand>
122243061

> <PubChem SID of Ligand>
433921371

> <ChEBI ID of Ligand>


> <ChEMBL ID of Ligand>


> <DrugBank ID of Ligand>


> <IUPHAR_GRAC ID of Ligand>


> <KEGG ID of Ligand>


> <ZINC ID of Ligand>


> <Number of Protein Chains in Target (bigger than 1 implies a multichain complex)>
1

> <BindingDB Target Chain Sequence>
YVIMGIANKRSIAFGVAKVLDQLGAKLVFTYRKERSRKELEKLLEQLNQPEAHLYQIDVQSDEEVINGFEQIGKDVGNIDGVYHSIAFANMEDLRGRFSETSREGFLLAQDISSYSLTIVAHEAKKLMPEGGSIVATTYLGGEFAVQNYNVMGVAKASLEANVKYLALDLGPDNIRVNAISAGPIRTLSAKGVGGFNTILKEIEERAPLKRNVDQVEVGKTAAYLLSDLSSGVTGENIHVDSG

> <PDB ID(s) of Target Chain>
3GNS,3GNT,3GR6,4ALI,4ALJ,4ALK,4ALL,4ALM,4ALN,4BNF,4BNG,4BNH,4BNI,4BNJ,4BNK,4BNL,4BNM,4BNN,4CUZ,4CV0,4CV1,4D41,4D42,4D43,4D44,4D45,4FS3,4NZ9,6TBB,6TBC,6YUR

> <UniProt (SwissProt) Recommended Name of Target Chain>
Enoyl-[acyl-carrier-protein] reductase [NADPH] FabI

> <UniProt (SwissProt) Entry Name of Target Chain>
FABI_STAAR

> <UniProt (SwissProt) Primary ID of Target Chain>
Q6GI75

> <UniProt (SwissProt) Secondary ID(s) of Target Chain>


> <UniProt (SwissProt) Alternative ID(s) of Target Chain>


> <UniProt (TrEMBL) Submitted Name of Target Chain>


> <UniProt (TrEMBL) Entry Name of Target Chain>


> <UniProt (TrEMBL) Primary ID of Target Chain>


> <UniProt (TrEMBL) Secondary ID(s) of Target Chain>


> <UniProt (TrEMBL) Alternative ID(s) of Target Chain>


$$$$
BindingDB_51108787_3D

Vconf v2.1
 43 45  0  0  0  0  0  0  0  0999 V2000
   18.6190   -3.1500   -0.3280 C   0  0  2  0  0  0  0  0  0  0  0
   18.5240   -4.6570   -0.0440 C   0  0  0  0  0  0  0  0  0  0  0
   19.8340   -5.0260    0.3640 N   0  0  0  0  0  0  0  0  0  0  0
   20.6940   -3.9230    0.6130 C   0  0  0  0  0  0  0  0  0  0  0
   19.7830   -2.6930    0.5600 C   0  0  0  0  0  0  0  0  0  0  0
   17.3500   -2.4070   -0.1160 C   0  0  0  0  0  0  0  0  0  0  0
   16.7460   -2.4020    1.1600 C   0  0  0  0  0  0  0  0  0  0  0
   15.5460   -1.7110    1.3870 C   0  0  0  0  0  0  0  0  0  0  0
   14.9320   -1.0140    0.3360 C   0  0  0  0  0  0  0  0  0  0  0
   15.5200   -1.0130   -0.9390 C   0  0  0  0  0  0  0  0  0  0  0
   16.7270   -1.7060   -1.1770 C   0  0  0  0  0  0  0  0  0  0  0
   20.2530   -6.3140    0.5030 C   0  0  0  0  0  0  0  0  0  0  0
   21.4370   -6.5360    0.8460 O   0  0  0  0  0  0  0  0  0  0  0
   19.3840   -7.4780    0.2450 C   0  0  0  0  0  0  0  0  0  0  0
   18.2790   -7.6120    1.2250 C   0  0  0  0  0  0  0  0  0  0  0
   18.5850   -7.8190    2.5880 C   0  0  0  0  0  0  0  0  0  0  0
   17.5620   -7.9490    3.5420 C   0  0  0  0  0  0  0  0  0  0  0
   16.2180   -7.8790    3.1440 C   0  0  0  0  0  0  0  0  0  0  0
   15.8980   -7.6850    1.7900 C   0  0  0  0  0  0  0  0  0  0  0
   16.9200   -7.5560    0.8330 C   0  0  0  0  0  0  0  0  0  0  0
   16.5810   -7.3760   -0.4140 F   0  0  0  0  0  0  0  0  0  0  0
   17.3260   -1.7310   -2.4070 O   0  0  0  0  0  0  0  0  0  0  0
   16.7760   -1.0840   -3.5570 C   0  0  0  0  0  0  0  0  0  0  0
   18.9550   -3.0450   -1.3620 H   0  0  0  0  0  0  0  0  0  0  0
   17.8190   -4.8720    0.7600 H   0  0  0  0  0  0  0  0  0  0  0
   18.2260   -5.1800   -0.9540 H   0  0  0  0  0  0  0  0  0  0  0
   21.1590   -3.9960    1.5970 H   0  0  0  0  0  0  0  0  0  0  0
   21.4610   -3.8640   -0.1610 H   0  0  0  0  0  0  0  0  0  0  0
   20.3010   -1.8350    0.1290 H   0  0  0  0  0  0  0  0  0  0  0
   19.4460   -2.4570    1.5710 H   0  0  0  0  0  0  0  0  0  0  0
   17.1810   -2.9080    1.9320 H   0  0  0  0  0  0  0  0  0  0  0
   15.1200   -1.7160    2.3140 H   0  0  0  0  0  0  0  0  0  0  0
   14.0590   -0.5110    0.4970 H   0  0  0  0  0  0  0  0  0  0  0
   15.0620   -0.5030   -1.6940 H   0  0  0  0  0  0  0  0  0  0  0
   19.0050   -7.3940   -0.7730 H   0  0  0  0  0  0  0  0  0  0  0
   19.9880   -8.3850    0.2940 H   0  0  0  0  0  0  0  0  0  0  0
   19.5590   -7.8730    2.8890 H   0  0  0  0  0  0  0  0  0  0  0
   17.7960   -8.0940    4.5250 H   0  0  0  0  0  0  0  0  0  0  0
   15.4740   -7.9710    3.8360 H   0  0  0  0  0  0  0  0  0  0  0
   14.9190   -7.6380    1.5050 H   0  0  0  0  0  0  0  0  0  0  0
   17.4320   -1.2620   -4.4090 H   0  0  0  0  0  0  0  0  0  0  0
   15.7880   -1.4900   -3.7830 H   0  0  0  0  0  0  0  0  0  0  0
   16.7020   -0.0090   -3.3880 H   0  0  0  0  0  0  0  0  0  0  0
  1  2  1  0  0  0  0
  1  5  1  0  0  0  0
  1  6  1  0  0  0  0
  1 24  1  0  0  0  0
  2  3  1  0  0  0  0
  2 25  1  0  0  0  0
  2 26  1  0  0  0  0
  3  4  1  0  0  0  0
  3 12  1  0  0  0  0
  4  5  1  0  0  0  0
  4 27  1  0  0  0  0
  4 28  1  0  0  0  0
  5 29  1  0  0  0  0
  5 30  1  0  0  0  0
  6  7  2  0  0  0  0
  6 11  1  0  0  0  0
  7  8  1  0  0  0  0
  7 31  1  0  0  0  0
  8  9  2  0  0  0  0
  8 32  1  0  0  0  0
  9 10  1  0  0  0  0
  9 33  1  0  0  0  0
 10 11  2  0  0  0  0
 10 34  1  0  0  0  0
 11 22  1  0  0  0  0
 12 13  2  0  0  0  0
 12 14  1  0  0  0  0
 14 15  1  0  0  0  0
 14 35  1  0  0  0  0
 14 36  1  0  0  0  0
 15 16  2  0  0  0  0
 15 20  1  0  0  0  0
 16 17  1  0  0  0  0
 16 37  1  0  0  0  0
 17 18  2  0  0  0  0
 17 38  1  0  0  0  0
 18 19  1  0  0  0  0
 18 39  1  0  0  0  0
 19 20  2  0  0  0  0
 19 40  1  0  0  0  0
 20 21  1  0  0  0  0
 22 23  1  0  0  0  0
 23 41  1  0  0  0  0
 23 42  1  0  0  0  0
 23 43  1  0  0  0  0
M  END
> <From>
www.bindingDB.org

> <BindingDB Reactant_set_id>
51108787

> <Ligand InChI>
InChI=1S/C19H20FNO2/c1-23-18-9-5-3-7-16(18)15-10-11-21(13-15)19(22)12-14-6-2-4-8-17(14)20/h2-9,15H,10-13H2,1H3

> <Ligand InChI Key>
GCWSGIASPQOXFB-UHFFFAOYSA-N

> <BindingDB MonomerID>
50452477

> <BindingDB Ligand Name>
CHEMBL4209685

> <Target Name>
Enoyl-[acyl-carrier-protein] reductase [NADPH] FabI [9-251]

> <Target Source Organism According to Curator or DataSource>
Staphylococcus aureus

> <Ki (nM)>
 1700

> <IC50 (nM)>


> <Kd (nM)>


> <EC50 (nM)>


> <kon (M-1-s-1)>


> <koff (s-1)>


> <pH>


> <Temp C>


> <Curation/DataSource>
ChEMBL

> <Article DOI>
10.1016/j.bmc.2017.11.018

> <BindingDB Entry DOI>
10.7270/Q2QF8WF7

> <PMID>
29162308

> <PubChem AID>


> <Patent Number>


> <Authors>
Kwon, J; Mistry, T; Ren, J; Johnson, ME; Mehboob, S

> <Institution>
Novalex Therapeutics

> <Link to Ligand in BindingDB>
http://www.bindingdb.org/bind/chemsearch/marvin/MolStructure.jsp?monomerid=50452477

> <Link to Ligand-Target Pair in BindingDB>
http://www.bindingdb.org/jsp/dbsearch/PrimarySearch_ki.jsp?energyterm=kJ/mole&tag=pol&polymerid=50004708&target=Enoyl-%5Bacyl-carrier-protein%5D+reductase+%5BNADPH%5D+FabI+%5B9-251%5D&column=ki&startPg=0&Increment=50&submit=Search

> <Link to Ligand-Target Pair in BindingDB>
http://www.bindingdb.org/jsp/dbsearch/PrimarySearch_ki.jsp?energyterm=kJ/mole&tag=r21&monomerid=50452477&enzyme=Enoyl-%5Bacyl-carrier-protein%5D+reductase+%5BNADPH%5D+FabI+%5B9-251%5D&column=ki&startPg=0&Increment=50&submit=Search

> <Ligand HET ID in PDB>


> <PDB ID(s) for Ligand-Target Complex>


> <PubChem CID of Ligand>
119106336

> <PubChem SID of Ligand>
433921344

> <ChEBI ID of Ligand>


> <ChEMBL ID of Ligand>


> <DrugBank ID of Ligand>


> <IUPHAR_GRAC ID of Ligand>


> <KEGG ID of Ligand>


> <ZINC ID of Ligand>


> <Number of Protein Chains in Target (bigger than 1 implies a multichain complex)>
1

> <BindingDB Target Chain Sequence>
YVIMGIANKRSIAFGVAKVLDQLGAKLVFTYRKERSRKELEKLLEQLNQPEAHLYQIDVQSDEEVINGFEQIGKDVGNIDGVYHSIAFANMEDLRGRFSETSREGFLLAQDISSYSLTIVAHEAKKLMPEGGSIVATTYLGGEFAVQNYNVMGVAKASLEANVKYLALDLGPDNIRVNAISAGPIRTLSAKGVGGFNTILKEIEERAPLKRNVDQVEVGKTAAYLLSDLSSGVTGENIHVDSG

> <PDB ID(s) of Target Chain>
3GNS,3GNT,3GR6,4ALI,4ALJ,4ALK,4ALL,4ALM,4ALN,4BNF,4BNG,4BNH,4BNI,4BNJ,4BNK,4BNL,4BNM,4BNN,4CUZ,4CV0,4CV1,4D41,4D42,4D43,4D44,4D45,4FS3,4NZ9,6TBB,6TBC,6YUR

> <UniProt (SwissProt) Recommended Name of Target Chain>
Enoyl-[acyl-carrier-protein] reductase [NADPH] FabI

> <UniProt (SwissProt) Entry Name of Target Chain>
FABI_STAAR

> <UniProt (SwissProt) Primary ID of Target Chain>
Q6GI75

> <UniProt (SwissProt) Secondary ID(s) of Target Chain>


> <UniProt (SwissProt) Alternative ID(s) of Target Chain>


> <UniProt (TrEMBL) Submitted Name of Target Chain>


> <UniProt (TrEMBL) Entry Name of Target Chain>


> <UniProt (TrEMBL) Primary ID of Target Chain>


> <UniProt (TrEMBL) Secondary ID(s) of Target Chain>


> <UniProt (TrEMBL) Alternative ID(s) of Target Chain>


$$$$
BindingDB_50452482_mol_1

Vconf v2.0 Academic SN VC001-00000579
 75 77  0  0  0  0  0  0  0  0999 V2000
   -0.8850   -7.6460    0.5310 C   0  0  1  0  0  0  0  0  0  0  0
   -1.8890   -7.7490   -0.4790 N   0  0  0  0  0  0  0  0  0  0  0
   -3.2830   -6.0750    0.5360 N   0  0  0  0  0  0  0  0  0  0  0
   -3.0250   -6.9940   -0.4420 C   0  0  0  0  0  0  0  0  0  0  0
   -1.1280   -6.6150    1.6540 C   0  0  1  0  0  0  0  0  0  0  0
   -0.7680   -8.8460    1.2100 N   0  0  0  0  0  0  0  0  0  0  0
   -2.3950   -5.8800    1.5520 C   0  0  0  0  0  0  0  0  0  0  0
   -1.1030   -7.4320    2.8040 N   0  0  0  0  0  0  0  0  0  0  0
   -0.8870   -8.7170    2.5040 C   0  0  0  0  0  0  0  0  0  0  0
   -0.4510  -16.1840    2.9630 C   0  0  0  0  0  0  0  0  0  0  0
   -0.5420  -18.0800    4.5560 C   0  0  0  0  0  0  0  0  0  0  0
    0.0570  -15.7060    1.6720 C   0  0  0  0  0  0  0  0  0  0  0
   -0.7910   -9.7690    3.4370 C   0  0  0  0  0  0  0  0  0  0  0
   -3.8750   -7.1700   -1.3460 O   0  0  0  0  0  0  0  0  0  0  0
    0.0560  -17.6050    3.2990 C   0  0  2  0  0  0  0  0  0  0  0
   -2.6300   -5.0340    2.4450 O   0  0  0  0  0  0  0  0  0  0  0
   -0.5390  -14.2250    8.1310 C   0  0  0  0  0  0  0  0  0  0  0
   -1.2740  -19.0940    4.5570 O   0  0  0  0  0  0  0  0  0  0  0
    0.7760  -14.6870    1.6140 O   0  0  0  0  0  0  0  0  0  0  0
    0.1010  -14.2410    9.2060 O   0  0  0  0  0  0  0  0  0  0  0
   -1.6640   -8.6810   -1.5440 C   0  0  0  0  0  0  0  0  0  0  0
   -4.4960   -5.2990    0.5080 C   0  0  0  0  0  0  0  0  0  0  0
   -0.2560  -11.0200    3.0560 C   0  0  0  0  0  0  0  0  0  0  0
   -1.2160   -9.5940    4.7720 C   0  0  0  0  0  0  0  0  0  0  0
   -0.3180  -17.3880    5.6900 N   0  0  0  0  0  0  0  0  0  0  0
   -0.8730  -15.3700    7.5050 N   0  0  0  0  0  0  0  0  0  0  0
   -0.3850  -12.9360    6.1690 O   0  0  0  0  0  0  0  0  0  0  0
   -0.2420  -16.3530    0.5380 N   0  0  0  0  0  0  0  0  0  0  0
   -0.8990  -12.9510    7.5050 C   0  0  0  0  0  0  0  0  0  0  0
    1.5180  -17.6030    3.4280 N   0  0  0  0  0  0  0  0  0  0  0
   -0.5530  -11.8800    5.3200 C   0  0  0  0  0  0  0  0  0  0  0
   -1.1010  -10.6400    5.7040 C   0  0  0  0  0  0  0  0  0  0  0
   -0.1360  -12.0610    3.9900 C   0  0  0  0  0  0  0  0  0  0  0
   -0.9100  -17.7130    6.9390 C   0  0  0  0  0  0  0  0  0  0  0
   -0.5020  -16.6560    7.9760 C   0  0  0  0  0  0  0  0  0  0  0
   -5.5010   -5.8090    1.5550 C   0  0  0  0  0  0  0  0  0  0  0
   -1.3480   -7.9600   -2.8660 C   0  0  0  0  0  0  0  0  0  0  0
   -6.8100   -5.0130    1.4740 C   0  0  0  0  0  0  0  0  0  0  0
   -1.0800   -8.9770   -3.9830 C   0  0  0  0  0  0  0  0  0  0  0
    0.0700   -7.4170    0.0530 H   0  0  0  0  0  0  0  0  0  0  0
   -0.3010   -5.9050    1.6900 H   0  0  0  0  0  0  0  0  0  0  0
   -1.2170   -7.0950    3.7060 H   0  0  0  0  0  0  0  0  0  0  0
   -1.5410  -16.1860    2.9230 H   0  0  0  0  0  0  0  0  0  0  0
   -0.1330  -15.4930    3.7460 H   0  0  0  0  0  0  0  0  0  0  0
   -0.2250  -18.2890    2.4950 H   0  0  0  0  0  0  0  0  0  0  0
   -0.8160   -9.3250   -1.3060 H   0  0  0  0  0  0  0  0  0  0  0
   -2.5420   -9.3180   -1.6710 H   0  0  0  0  0  0  0  0  0  0  0
   -4.2700   -4.2490    0.7070 H   0  0  0  0  0  0  0  0  0  0  0
   -4.9800   -5.3420   -0.4700 H   0  0  0  0  0  0  0  0  0  0  0
    0.0580  -11.1790    2.0970 H   0  0  0  0  0  0  0  0  0  0  0
   -1.6120   -8.7030    5.0760 H   0  0  0  0  0  0  0  0  0  0  0
    0.2640  -16.6140    5.6430 H   0  0  0  0  0  0  0  0  0  0  0
   -1.3540  -15.3070    6.6650 H   0  0  0  0  0  0  0  0  0  0  0
    0.0980  -16.0210   -0.3070 H   0  0  0  0  0  0  0  0  0  0  0
   -0.7990  -17.1460    0.5620 H   0  0  0  0  0  0  0  0  0  0  0
   -0.4760  -12.1290    8.0860 H   0  0  0  0  0  0  0  0  0  0  0
   -1.9860  -12.8610    7.4850 H   0  0  0  0  0  0  0  0  0  0  0
    1.8010  -18.5710    3.5950 H   0  0  0  0  0  0  0  0  0  0  0
    1.8980  -17.3360    2.5180 H   0  0  0  0  0  0  0  0  0  0  0
   -1.4130  -10.4900    6.6630 H   0  0  0  0  0  0  0  0  0  0  0
    0.2600  -12.9560    3.7000 H   0  0  0  0  0  0  0  0  0  0  0
   -0.5710  -18.6960    7.2680 H   0  0  0  0  0  0  0  0  0  0  0
   -1.9970  -17.7210    6.8440 H   0  0  0  0  0  0  0  0  0  0  0
    0.5790  -16.7010    8.1210 H   0  0  0  0  0  0  0  0  0  0  0
   -0.9990  -16.8640    8.9250 H   0  0  0  0  0  0  0  0  0  0  0
   -5.7130   -6.8630    1.3710 H   0  0  0  0  0  0  0  0  0  0  0
   -5.0810   -5.6990    2.5560 H   0  0  0  0  0  0  0  0  0  0  0
   -2.1890   -7.3310   -3.1590 H   0  0  0  0  0  0  0  0  0  0  0
   -0.4650   -7.3340   -2.7330 H   0  0  0  0  0  0  0  0  0  0  0
   -7.5060   -5.3820    2.2270 H   0  0  0  0  0  0  0  0  0  0  0
   -6.6100   -3.9570    1.6550 H   0  0  0  0  0  0  0  0  0  0  0
   -7.2530   -5.1340    0.4850 H   0  0  0  0  0  0  0  0  0  0  0
   -0.8530   -8.4470   -4.9080 H   0  0  0  0  0  0  0  0  0  0  0
   -0.2340   -9.6080   -3.7120 H   0  0  0  0  0  0  0  0  0  0  0
   -1.9630   -9.5990   -4.1330 H   0  0  0  0  0  0  0  0  0  0  0
  1  2  1  0  0  0  0
  1  5  1  0  0  0  0
  1  6  1  0  0  0  0
  1 40  1  0  0  0  0
  2  4  1  0  0  0  0
  2 21  1  0  0  0  0
  3  4  1  0  0  0  0
  3  7  1  0  0  0  0
  3 22  1  0  0  0  0
  4 14  2  0  0  0  0
  5  7  1  0  0  0  0
  5  8  1  0  0  0  0
  5 41  1  0  0  0  0
  6  9  2  0  0  0  0
  7 16  2  0  0  0  0
  8  9  1  0  0  0  0
  8 42  1  0  0  0  0
  9 13  1  0  0  0  0
 10 12  1  0  0  0  0
 10 15  1  0  0  0  0
 10 43  1  0  0  0  0
 10 44  1  0  0  0  0
 11 15  1  0  0  0  0
 11 18  2  0  0  0  0
 11 25  1  0  0  0  0
 12 19  2  0  0  0  0
 12 28  1  0  0  0  0
 13 23  2  0  0  0  0
 13 24  1  0  0  0  0
 15 30  1  0  0  0  0
 15 45  1  0  0  0  0
 17 20  2  0  0  0  0
 17 26  1  0  0  0  0
 17 29  1  0  0  0  0
 21 37  1  0  0  0  0
 21 46  1  0  0  0  0
 21 47  1  0  0  0  0
 22 36  1  0  0  0  0
 22 48  1  0  0  0  0
 22 49  1  0  0  0  0
 23 33  1  0  0  0  0
 23 50  1  0  0  0  0
 24 32  2  0  0  0  0
 24 51  1  0  0  0  0
 25 34  1  0  0  0  0
 25 52  1  0  0  0  0
 26 35  1  0  0  0  0
 26 53  1  0  0  0  0
 27 29  1  0  0  0  0
 27 31  1  0  0  0  0
 28 54  1  0  0  0  0
 28 55  1  0  0  0  0
 29 56  1  0  0  0  0
 29 57  1  0  0  0  0
 30 58  1  0  0  0  0
 30 59  1  0  0  0  0
 31 32  1  0  0  0  0
 31 33  2  0  0  0  0
 32 60  1  0  0  0  0
 33 61  1  0  0  0  0
 34 35  1  0  0  0  0
 34 62  1  0  0  0  0
 34 63  1  0  0  0  0
 35 64  1  0  0  0  0
 35 65  1  0  0  0  0
 36 38  1  0  0  0  0
 36 66  1  0  0  0  0
 36 67  1  0  0  0  0
 37 39  1  0  0  0  0
 37 68  1  0  0  0  0
 37 69  1  0  0  0  0
 38 70  1  0  0  0  0
 38 71  1  0  0  0  0
 38 72  1  0  0  0  0
 39 73  1  0  0  0  0
 39 74  1  0  0  0  0
 39 75  1  0  0  0  0
M  END
> <From>
www.bindingDB.org

> <BindingDB Reactant_set_id>
51108800

> <Ligand InChI>
InChI=1S/C17H18N4O2S/c1-12(22)20-15-4-2-13(10-19-15)3-5-16(23)21-8-6-14(11-21)17-18-7-9-24-17/h2-5,7,9-10,14H,6,8,11H2,1H3,(H,19,20,22)/b5-3+

> <Ligand InChI Key>
RMCDBOKHZMWFBB-HWKANZROSA-N

> <BindingDB MonomerID>
50452482

> <BindingDB Ligand Name>
CHEMBL4208104

> <Target Name>
Enoyl-[acyl-carrier-protein] reductase [NADPH] FabI [9-251]

> <Target Source Organism According to Curator or DataSource>
Staphylococcus aureus

> <Ki (nM)>
 1700

> <IC50 (nM)>


> <Kd (nM)>


> <EC50 (nM)>


> <kon (M-1-s-1)>


> <koff (s-1)>


> <pH>


> <Temp C>


> <Curation/DataSource>
ChEMBL

> <Article DOI>
10.1016/j.bmc.2017.11.018

> <BindingDB Entry DOI>
10.7270/Q2QF8WF7

> <PMID>
29162308

> <PubChem AID>


> <Patent Number>


> <Authors>
Kwon, J; Mistry, T; Ren, J; Johnson, ME; Mehboob, S

> <Institution>
Novalex Therapeutics

> <Link to Ligand in BindingDB>
http://www.bindingdb.org/bind/chemsearch/marvin/MolStructure.jsp?monomerid=50452482

> <Link to Ligand-Target Pair in BindingDB>
http://www.bindingdb.org/jsp/dbsearch/PrimarySearch_ki.jsp?energyterm=kJ/mole&tag=pol&polymerid=50004708&target=Enoyl-%5Bacyl-carrier-protein%5D+reductase+%5BNADPH%5D+FabI+%5B9-251%5D&column=ki&startPg=0&Increment=50&submit=Search

> <Link to Ligand-Target Pair in BindingDB>
http://www.bindingdb.org/jsp/dbsearch/PrimarySearch_ki.jsp?energyterm=kJ/mole&tag=r21&monomerid=50452482&enzyme=Enoyl-%5Bacyl-carrier-protein%5D+reductase+%5BNADPH%5D+FabI+%5B9-251%5D&column=ki&startPg=0&Increment=50&submit=Search

> <Ligand HET ID in PDB>


> <PDB ID(s) for Ligand-Target Complex>


> <PubChem CID of Ligand>
122243068

> <PubChem SID of Ligand>
433921348

> <ChEBI ID of Ligand>


> <ChEMBL ID of Ligand>


> <DrugBank ID of Ligand>


> <IUPHAR_GRAC ID of Ligand>


> <KEGG ID of Ligand>


> <ZINC ID of Ligand>


> <Number of Protein Chains in Target (bigger than 1 implies a multichain complex)>
1

> <BindingDB Target Chain Sequence>
YVIMGIANKRSIAFGVAKVLDQLGAKLVFTYRKERSRKELEKLLEQLNQPEAHLYQIDVQSDEEVINGFEQIGKDVGNIDGVYHSIAFANMEDLRGRFSETSREGFLLAQDISSYSLTIVAHEAKKLMPEGGSIVATTYLGGEFAVQNYNVMGVAKASLEANVKYLALDLGPDNIRVNAISAGPIRTLSAKGVGGFNTILKEIEERAPLKRNVDQVEVGKTAAYLLSDLSSGVTGENIHVDSG

> <PDB ID(s) of Target Chain>
3GNS,3GNT,3GR6,4ALI,4ALJ,4ALK,4ALL,4ALM,4ALN,4BNF,4BNG,4BNH,4BNI,4BNJ,4BNK,4BNL,4BNM,4BNN,4CUZ,4CV0,4CV1,4D41,4D42,4D43,4D44,4D45,4FS3,4NZ9,6TBB,6TBC,6YUR

> <UniProt (SwissProt) Recommended Name of Target Chain>
Enoyl-[acyl-carrier-protein] reductase [NADPH] FabI

> <UniProt (SwissProt) Entry Name of Target Chain>
FABI_STAAR

> <UniProt (SwissProt) Primary ID of Target Chain>
Q6GI75

> <UniProt (SwissProt) Secondary ID(s) of Target Chain>


> <UniProt (SwissProt) Alternative ID(s) of Target Chain>


> <UniProt (TrEMBL) Submitted Name of Target Chain>


> <UniProt (TrEMBL) Entry Name of Target Chain>


> <UniProt (TrEMBL) Primary ID of Target Chain>


> <UniProt (TrEMBL) Secondary ID(s) of Target Chain>


> <UniProt (TrEMBL) Alternative ID(s) of Target Chain>


$$$$
BindingDB_50452483_mol_1

Vconf v2.0 Academic SN VC001-00000579
 54 56  0  0  0  0  0  0  0  0999 V2000
    1.4740   -2.3450   -0.2660 N   0  0  0  0  0  0  0  0  0  0  0
    2.5680   -4.2970    0.4280 N   0  0  0  0  0  0  0  0  0  0  0
    3.7010   -2.1860    0.5790 C   0  0  0  0  0  0  0  0  0  0  0
    3.6710   -3.5850    0.7590 C   0  0  0  0  0  0  0  0  0  0  0
    2.5500   -1.5850    0.0490 C   0  0  0  0  0  0  0  0  0  0  0
    1.4740   -3.6860   -0.0820 C   0  0  0  0  0  0  0  0  0  0  0
    4.8190   -1.4970    0.9210 N   0  0  0  0  0  0  0  0  0  0  0
    8.3640    4.5470    7.0500 C   0  0  0  0  0  0  0  0  0  0  0
    4.7710   -4.1910    1.2710 N   0  0  0  0  0  0  0  0  0  0  0
    7.3050    4.9730    7.7830 N   0  0  0  0  0  0  0  0  0  0  0
    6.0390    6.3770    9.1350 C   0  0  0  0  0  0  0  0  0  0  0
    7.3820    5.9880    8.7800 C   0  0  1  0  0  0  0  0  0  0  0
    8.2300    3.5200    6.0830 C   0  0  0  0  0  0  0  0  0  0  0
    9.0680    6.1000   12.2060 C   0  0  0  0  0  0  0  0  0  0  0
    9.4750    5.0920    7.2450 O   0  0  0  0  0  0  0  0  0  0  0
    5.6710    7.5330    9.0090 O   0  0  0  0  0  0  0  0  0  0  0
    5.9200   -2.1060    1.4350 C   0  0  0  0  0  0  0  0  0  0  0
   10.1390    6.6020   12.5040 O   0  0  0  0  0  0  0  0  0  0  0
    0.3940   -4.4040   -0.4020 N   0  0  0  0  0  0  0  0  0  0  0
    8.1430    5.4780   10.0230 C   0  0  0  0  0  0  0  0  0  0  0
    6.9880    2.8850    5.8490 C   0  0  0  0  0  0  0  0  0  0  0
    9.3450    3.0970    5.3240 C   0  0  0  0  0  0  0  0  0  0  0
    5.8900   -3.5030    1.6130 C   0  0  0  0  0  0  0  0  0  0  0
    2.5040   -0.2500   -0.1520 O   0  0  0  0  0  0  0  0  0  0  0
    8.3190    6.5840   11.0810 C   0  0  0  0  0  0  0  0  0  0  0
    7.9320    0.4640    3.2110 N   0  0  0  0  0  0  0  0  0  0  0
    5.1840    5.4880    9.6050 O   0  0  0  0  0  0  0  0  0  0  0
    7.9860    1.4480    4.1430 C   0  0  0  0  0  0  0  0  0  0  0
    7.0990   -1.3000    1.7870 C   0  0  0  0  0  0  0  0  0  0  0
    8.6000    5.1090   12.9390 O   0  0  0  0  0  0  0  0  0  0  0
    9.2240    2.0760    4.3660 C   0  0  0  0  0  0  0  0  0  0  0
    6.8680    1.8630    4.8930 C   0  0  0  0  0  0  0  0  0  0  0
    6.7620   -0.2710    2.8790 C   0  0  0  0  0  0  0  0  0  0  0
    6.4370    4.5780    7.6100 H   0  0  0  0  0  0  0  0  0  0  0
    7.9040    6.8570    8.3720 H   0  0  0  0  0  0  0  0  0  0  0
    0.3960   -5.3650   -0.2700 H   0  0  0  0  0  0  0  0  0  0  0
   -0.3880   -3.9630   -0.7660 H   0  0  0  0  0  0  0  0  0  0  0
    7.6020    4.6370   10.4610 H   0  0  0  0  0  0  0  0  0  0  0
    9.1330    5.1330    9.7200 H   0  0  0  0  0  0  0  0  0  0  0
    6.1580    3.1590    6.3750 H   0  0  0  0  0  0  0  0  0  0  0
   10.2590    3.5310    5.4650 H   0  0  0  0  0  0  0  0  0  0  0
    6.6970   -3.9970    1.9950 H   0  0  0  0  0  0  0  0  0  0  0
    3.3290    0.2160    0.1000 H   0  0  0  0  0  0  0  0  0  0  0
    8.8410    7.4290   10.6300 H   0  0  0  0  0  0  0  0  0  0  0
    7.3420    6.9180   11.4320 H   0  0  0  0  0  0  0  0  0  0  0
    8.7510    0.2440    2.7400 H   0  0  0  0  0  0  0  0  0  0  0
    4.3070    5.8660    9.8230 H   0  0  0  0  0  0  0  0  0  0  0
    7.9060   -1.9420    2.1450 H   0  0  0  0  0  0  0  0  0  0  0
    7.4420   -0.7760    0.8940 H   0  0  0  0  0  0  0  0  0  0  0
    9.1890    4.8600   13.6820 H   0  0  0  0  0  0  0  0  0  0  0
   10.0460    1.7900    3.8330 H   0  0  0  0  0  0  0  0  0  0  0
    5.9590    1.4220    4.7480 H   0  0  0  0  0  0  0  0  0  0  0
    5.9930    0.4110    2.5100 H   0  0  0  0  0  0  0  0  0  0  0
    6.3930   -0.7910    3.7650 H   0  0  0  0  0  0  0  0  0  0  0
  1  5  1  0  0  0  0
  1  6  2  0  0  0  0
  2  4  2  0  0  0  0
  2  6  1  0  0  0  0
  3  4  1  0  0  0  0
  3  5  2  0  0  0  0
  3  7  1  0  0  0  0
  4  9  1  0  0  0  0
  5 24  1  0  0  0  0
  6 19  1  0  0  0  0
  7 17  2  0  0  0  0
  8 10  1  0  0  0  0
  8 13  1  0  0  0  0
  8 15  2  0  0  0  0
  9 23  2  0  0  0  0
 10 12  1  0  0  0  0
 10 34  1  0  0  0  0
 11 12  1  0  0  0  0
 11 16  2  0  0  0  0
 11 27  1  0  0  0  0
 12 20  1  0  0  0  0
 12 35  1  0  0  0  0
 13 21  1  0  0  0  0
 13 22  2  0  0  0  0
 14 18  2  0  0  0  0
 14 25  1  0  0  0  0
 14 30  1  0  0  0  0
 17 23  1  0  0  0  0
 17 29  1  0  0  0  0
 19 36  1  0  0  0  0
 19 37  1  0  0  0  0
 20 25  1  0  0  0  0
 20 38  1  0  0  0  0
 20 39  1  0  0  0  0
 21 32  2  0  0  0  0
 21 40  1  0  0  0  0
 22 31  1  0  0  0  0
 22 41  1  0  0  0  0
 23 42  1  0  0  0  0
 24 43  1  0  0  0  0
 25 44  1  0  0  0  0
 25 45  1  0  0  0  0
 26 28  1  0  0  0  0
 26 33  1  0  0  0  0
 26 46  1  0  0  0  0
 27 47  1  0  0  0  0
 28 31  2  0  0  0  0
 28 32  1  0  0  0  0
 29 33  1  0  0  0  0
 29 48  1  0  0  0  0
 29 49  1  0  0  0  0
 30 50  1  0  0  0  0
 31 51  1  0  0  0  0
 32 52  1  0  0  0  0
 33 53  1  0  0  0  0
 33 54  1  0  0  0  0
M  END
> <From>
www.bindingDB.org

> <BindingDB Reactant_set_id>
51108766

> <Ligand InChI>
InChI=1S/C18H18FNO/c19-17-9-5-4-8-15(17)12-18(21)20-11-10-16(13-20)14-6-2-1-3-7-14/h1-9,16H,10-13H2

> <Ligand InChI Key>
OVQXODRNAKHRKI-UHFFFAOYSA-N

> <BindingDB MonomerID>
50452483

> <BindingDB Ligand Name>
CHEMBL4210639

> <Target Name>
Enoyl-[acyl-carrier-protein] reductase [NADPH] FabI [9-251]

> <Target Source Organism According to Curator or DataSource>
Staphylococcus aureus

> <Ki (nM)>
 1900

> <IC50 (nM)>


> <Kd (nM)>


> <EC50 (nM)>


> <kon (M-1-s-1)>


> <koff (s-1)>


> <pH>


> <Temp C>


> <Curation/DataSource>
ChEMBL

> <Article DOI>
10.1016/j.bmc.2017.11.018

> <BindingDB Entry DOI>
10.7270/Q2QF8WF7

> <PMID>
29162308

> <PubChem AID>


> <Patent Number>


> <Authors>
Kwon, J; Mistry, T; Ren, J; Johnson, ME; Mehboob, S

> <Institution>
Novalex Therapeutics

> <Link to Ligand in BindingDB>
http://www.bindingdb.org/bind/chemsearch/marvin/MolStructure.jsp?monomerid=50452483

> <Link to Ligand-Target Pair in BindingDB>
http://www.bindingdb.org/jsp/dbsearch/PrimarySearch_ki.jsp?energyterm=kJ/mole&tag=pol&polymerid=50004708&target=Enoyl-%5Bacyl-carrier-protein%5D+reductase+%5BNADPH%5D+FabI+%5B9-251%5D&column=ki&startPg=0&Increment=50&submit=Search

> <Link to Ligand-Target Pair in BindingDB>
http://www.bindingdb.org/jsp/dbsearch/PrimarySearch_ki.jsp?energyterm=kJ/mole&tag=r21&monomerid=50452483&enzyme=Enoyl-%5Bacyl-carrier-protein%5D+reductase+%5BNADPH%5D+FabI+%5B9-251%5D&column=ki&startPg=0&Increment=50&submit=Search

> <Ligand HET ID in PDB>


> <PDB ID(s) for Ligand-Target Complex>


> <PubChem CID of Ligand>
119106334

> <PubChem SID of Ligand>
433921349

> <ChEBI ID of Ligand>


> <ChEMBL ID of Ligand>


> <DrugBank ID of Ligand>


> <IUPHAR_GRAC ID of Ligand>


> <KEGG ID of Ligand>


> <ZINC ID of Ligand>


> <Number of Protein Chains in Target (bigger than 1 implies a multichain complex)>
1

> <BindingDB Target Chain Sequence>
YVIMGIANKRSIAFGVAKVLDQLGAKLVFTYRKERSRKELEKLLEQLNQPEAHLYQIDVQSDEEVINGFEQIGKDVGNIDGVYHSIAFANMEDLRGRFSETSREGFLLAQDISSYSLTIVAHEAKKLMPEGGSIVATTYLGGEFAVQNYNVMGVAKASLEANVKYLALDLGPDNIRVNAISAGPIRTLSAKGVGGFNTILKEIEERAPLKRNVDQVEVGKTAAYLLSDLSSGVTGENIHVDSG

> <PDB ID(s) of Target Chain>
3GNS,3GNT,3GR6,4ALI,4ALJ,4ALK,4ALL,4ALM,4ALN,4BNF,4BNG,4BNH,4BNI,4BNJ,4BNK,4BNL,4BNM,4BNN,4CUZ,4CV0,4CV1,4D41,4D42,4D43,4D44,4D45,4FS3,4NZ9,6TBB,6TBC,6YUR

> <UniProt (SwissProt) Recommended Name of Target Chain>
Enoyl-[acyl-carrier-protein] reductase [NADPH] FabI

> <UniProt (SwissProt) Entry Name of Target Chain>
FABI_STAAR

> <UniProt (SwissProt) Primary ID of Target Chain>
Q6GI75

> <UniProt (SwissProt) Secondary ID(s) of Target Chain>


> <UniProt (SwissProt) Alternative ID(s) of Target Chain>


> <UniProt (TrEMBL) Submitted Name of Target Chain>


> <UniProt (TrEMBL) Entry Name of Target Chain>


> <UniProt (TrEMBL) Primary ID of Target Chain>


> <UniProt (TrEMBL) Secondary ID(s) of Target Chain>


> <UniProt (TrEMBL) Alternative ID(s) of Target Chain>


$$$$
BindingDB_51108768_3D

Vconf v2.1
 42 45  0  0  0  0  0  0  0  0999 V2000
    4.8820  -18.2950    0.8920 C   0  0  2  0  0  0  0  0  0  0  0
    6.2780  -18.9340    0.9680 C   0  0  0  0  0  0  0  0  0  0  0
    7.1400  -17.9670    0.3840 N   0  0  0  0  0  0  0  0  0  0  0
    6.5310  -16.7000    0.1770 C   0  0  0  0  0  0  0  0  0  0  0
    5.1810  -16.7910    0.8940 C   0  0  0  0  0  0  0  0  0  0  0
    3.9470  -18.7380    1.9530 C   0  0  0  0  0  0  0  0  0  0  0
    8.4330  -18.2110    0.0340 C   0  0  0  0  0  0  0  0  0  0  0
    9.1010  -17.2990   -0.5030 O   0  0  0  0  0  0  0  0  0  0  0
    9.0920  -19.5150    0.2370 C   0  0  0  0  0  0  0  0  0  0  0
    9.3270  -19.8340    1.6660 C   0  0  0  0  0  0  0  0  0  0  0
   10.1810  -19.0020    2.4230 C   0  0  0  0  0  0  0  0  0  0  0
   10.4360  -19.2740    3.7760 C   0  0  0  0  0  0  0  0  0  0  0
    9.8460  -20.3890    4.3900 C   0  0  0  0  0  0  0  0  0  0  0
    9.0010  -21.2350    3.6510 C   0  0  0  0  0  0  0  0  0  0  0
    8.7440  -20.9630    2.2910 C   0  0  0  0  0  0  0  0  0  0  0
    7.9570  -21.7590    1.6150 F   0  0  0  0  0  0  0  0  0  0  0
    4.2530  -18.5380    3.3190 C   0  0  0  0  0  0  0  0  0  0  0
    1.8300  -19.8120    2.5940 C   0  0  0  0  0  0  0  0  0  0  0
    2.7320  -19.3770    1.6030 C   0  0  0  0  0  0  0  0  0  0  0
    2.1600  -19.6000    3.9400 C   0  0  0  0  0  0  0  0  0  0  0
    3.3460  -18.9760    4.2950 C   0  0  0  0  0  0  0  0  0  0  0
    3.4430  -18.8860    5.6330 O   0  0  0  0  0  0  0  0  0  0  0
    2.2490  -19.4900    6.1560 C   0  0  0  0  0  0  0  0  0  0  0
    1.4600  -19.9290    5.0390 O   0  0  0  0  0  0  0  0  0  0  0
    8.4660  -22.2670    4.2460 F   0  0  0  0  0  0  0  0  0  0  0
    4.4710  -18.5370   -0.0920 H   0  0  0  0  0  0  0  0  0  0  0
    6.5830  -19.1180    1.9980 H   0  0  0  0  0  0  0  0  0  0  0
    6.2820  -19.8670    0.4020 H   0  0  0  0  0  0  0  0  0  0  0
    7.1280  -15.8960    0.6120 H   0  0  0  0  0  0  0  0  0  0  0
    6.3860  -16.5240   -0.8900 H   0  0  0  0  0  0  0  0  0  0  0
    4.4110  -16.2300    0.3630 H   0  0  0  0  0  0  0  0  0  0  0
    5.2910  -16.4090    1.9100 H   0  0  0  0  0  0  0  0  0  0  0
    8.4860  -20.2790   -0.2490 H   0  0  0  0  0  0  0  0  0  0  0
   10.0600  -19.5010   -0.2670 H   0  0  0  0  0  0  0  0  0  0  0
   10.6190  -18.1900    1.9860 H   0  0  0  0  0  0  0  0  0  0  0
   11.0530  -18.6630    4.3120 H   0  0  0  0  0  0  0  0  0  0  0
   10.0340  -20.5830    5.3740 H   0  0  0  0  0  0  0  0  0  0  0
    5.1220  -18.0820    3.5990 H   0  0  0  0  0  0  0  0  0  0  0
    0.9570  -20.2730    2.3390 H   0  0  0  0  0  0  0  0  0  0  0
    2.5020  -19.5270    0.6210 H   0  0  0  0  0  0  0  0  0  0  0
    2.5090  -20.3420    6.7850 H   0  0  0  0  0  0  0  0  0  0  0
    1.6890  -18.7590    6.7420 H   0  0  0  0  0  0  0  0  0  0  0
  1  2  1  0  0  0  0
  1  5  1  0  0  0  0
  1  6  1  0  0  0  0
  1 26  1  0  0  0  0
  2  3  1  0  0  0  0
  2 27  1  0  0  0  0
  2 28  1  0  0  0  0
  3  4  1  0  0  0  0
  3  7  1  0  0  0  0
  4  5  1  0  0  0  0
  4 29  1  0  0  0  0
  4 30  1  0  0  0  0
  5 31  1  0  0  0  0
  5 32  1  0  0  0  0
  6 17  2  0  0  0  0
  6 19  1  0  0  0  0
  7  8  2  0  0  0  0
  7  9  1  0  0  0  0
  9 10  1  0  0  0  0
  9 33  1  0  0  0  0
  9 34  1  0  0  0  0
 10 11  2  0  0  0  0
 10 15  1  0  0  0  0
 11 12  1  0  0  0  0
 11 35  1  0  0  0  0
 12 13  2  0  0  0  0
 12 36  1  0  0  0  0
 13 14  1  0  0  0  0
 13 37  1  0  0  0  0
 14 15  2  0  0  0  0
 14 25  1  0  0  0  0
 15 16  1  0  0  0  0
 17 21  1  0  0  0  0
 17 38  1  0  0  0  0
 18 19  2  0  0  0  0
 18 20  1  0  0  0  0
 18 39  1  0  0  0  0
 19 40  1  0  0  0  0
 20 21  2  0  0  0  0
 20 24  1  0  0  0  0
 21 22  1  0  0  0  0
 22 23  1  0  0  0  0
 23 24  1  0  0  0  0
 23 41  1  0  0  0  0
 23 42  1  0  0  0  0
M  END
> <From>
www.bindingDB.org

> <BindingDB Reactant_set_id>
51108768

> <Ligand InChI>
InChI=1S/C19H17F2NO3/c20-15-3-1-2-13(19(15)21)9-18(23)22-7-6-14(10-22)12-4-5-16-17(8-12)25-11-24-16/h1-5,8,14H,6-7,9-11H2

> <Ligand InChI Key>
DCFHLNWEQZANHL-UHFFFAOYSA-N

> <BindingDB MonomerID>
50452495

> <BindingDB Ligand Name>
CHEMBL4218049

> <Target Name>
Enoyl-[acyl-carrier-protein] reductase [NADPH] FabI [9-251]

> <Target Source Organism According to Curator or DataSource>
Staphylococcus aureus

> <Ki (nM)>
 2000

> <IC50 (nM)>


> <Kd (nM)>


> <EC50 (nM)>


> <kon (M-1-s-1)>


> <koff (s-1)>


> <pH>


> <Temp C>


> <Curation/DataSource>
ChEMBL

> <Article DOI>
10.1016/j.bmc.2017.11.018

> <BindingDB Entry DOI>
10.7270/Q2QF8WF7

> <PMID>
29162308

> <PubChem AID>


> <Patent Number>


> <Authors>
Kwon, J; Mistry, T; Ren, J; Johnson, ME; Mehboob, S

> <Institution>
Novalex Therapeutics

> <Link to Ligand in BindingDB>
http://www.bindingdb.org/bind/chemsearch/marvin/MolStructure.jsp?monomerid=50452495

> <Link to Ligand-Target Pair in BindingDB>
http://www.bindingdb.org/jsp/dbsearch/PrimarySearch_ki.jsp?energyterm=kJ/mole&tag=pol&polymerid=50004708&target=Enoyl-%5Bacyl-carrier-protein%5D+reductase+%5BNADPH%5D+FabI+%5B9-251%5D&column=ki&startPg=0&Increment=50&submit=Search

> <Link to Ligand-Target Pair in BindingDB>
http://www.bindingdb.org/jsp/dbsearch/PrimarySearch_ki.jsp?energyterm=kJ/mole&tag=r21&monomerid=50452495&enzyme=Enoyl-%5Bacyl-carrier-protein%5D+reductase+%5BNADPH%5D+FabI+%5B9-251%5D&column=ki&startPg=0&Increment=50&submit=Search

> <Ligand HET ID in PDB>


> <PDB ID(s) for Ligand-Target Complex>


> <PubChem CID of Ligand>
119106340

> <PubChem SID of Ligand>
433921351

> <ChEBI ID of Ligand>


> <ChEMBL ID of Ligand>


> <DrugBank ID of Ligand>


> <IUPHAR_GRAC ID of Ligand>


> <KEGG ID of Ligand>


> <ZINC ID of Ligand>


> <Number of Protein Chains in Target (bigger than 1 implies a multichain complex)>
1

> <BindingDB Target Chain Sequence>
YVIMGIANKRSIAFGVAKVLDQLGAKLVFTYRKERSRKELEKLLEQLNQPEAHLYQIDVQSDEEVINGFEQIGKDVGNIDGVYHSIAFANMEDLRGRFSETSREGFLLAQDISSYSLTIVAHEAKKLMPEGGSIVATTYLGGEFAVQNYNVMGVAKASLEANVKYLALDLGPDNIRVNAISAGPIRTLSAKGVGGFNTILKEIEERAPLKRNVDQVEVGKTAAYLLSDLSSGVTGENIHVDSG

> <PDB ID(s) of Target Chain>
3GNS,3GNT,3GR6,4ALI,4ALJ,4ALK,4ALL,4ALM,4ALN,4BNF,4BNG,4BNH,4BNI,4BNJ,4BNK,4BNL,4BNM,4BNN,4CUZ,4CV0,4CV1,4D41,4D42,4D43,4D44,4D45,4FS3,4NZ9,6TBB,6TBC,6YUR

> <UniProt (SwissProt) Recommended Name of Target Chain>
Enoyl-[acyl-carrier-protein] reductase [NADPH] FabI

> <UniProt (SwissProt) Entry Name of Target Chain>
FABI_STAAR

> <UniProt (SwissProt) Primary ID of Target Chain>
Q6GI75

> <UniProt (SwissProt) Secondary ID(s) of Target Chain>


> <UniProt (SwissProt) Alternative ID(s) of Target Chain>


> <UniProt (TrEMBL) Submitted Name of Target Chain>


> <UniProt (TrEMBL) Entry Name of Target Chain>


> <UniProt (TrEMBL) Primary ID of Target Chain>


> <UniProt (TrEMBL) Secondary ID(s) of Target Chain>


> <UniProt (TrEMBL) Alternative ID(s) of Target Chain>


$$$$
BindingDB_51108812_3D

Vconf v2.1
 43 45  0  0  0  0  0  0  0  0999 V2000
   10.6890   -7.9650    0.1940 C   0  0  2  0  0  0  0  0  0  0  0
   11.8770   -8.8840    0.5270 C   0  0  0  0  0  0  0  0  0  0  0
   12.9070   -8.0010    0.9490 N   0  0  0  0  0  0  0  0  0  0  0
   12.4790   -6.6580    1.1300 C   0  0  0  0  0  0  0  0  0  0  0
   10.9510   -6.7190    1.0490 C   0  0  0  0  0  0  0  0  0  0  0
    9.3570   -8.5860    0.4100 C   0  0  0  0  0  0  0  0  0  0  0
    9.0170   -9.0880    1.6850 C   0  0  0  0  0  0  0  0  0  0  0
    7.7710   -9.6920    1.9130 C   0  0  0  0  0  0  0  0  0  0  0
    6.8440   -9.7960    0.8660 C   0  0  0  0  0  0  0  0  0  0  0
    7.1660   -9.2950   -0.4050 C   0  0  0  0  0  0  0  0  0  0  0
    8.4190   -8.6880   -0.6440 C   0  0  0  0  0  0  0  0  0  0  0
   14.1940   -8.3850    1.1700 C   0  0  0  0  0  0  0  0  0  0  0
   15.0370   -7.5190    1.4950 O   0  0  0  0  0  0  0  0  0  0  0
   14.6600   -9.7800    1.0350 C   0  0  0  0  0  0  0  0  0  0  0
   14.0680  -10.7060    2.0370 C   0  0  0  0  0  0  0  0  0  0  0
   13.2650  -11.8010    1.6340 C   0  0  0  0  0  0  0  0  0  0  0
   12.7010  -12.6660    2.5890 C   0  0  0  0  0  0  0  0  0  0  0
   12.9360  -12.4570    3.9560 C   0  0  0  0  0  0  0  0  0  0  0
   13.7440  -11.3880    4.3710 C   0  0  0  0  0  0  0  0  0  0  0
   14.3130  -10.5220    3.4200 C   0  0  0  0  0  0  0  0  0  0  0
   15.0710   -9.5500    3.8480 F   0  0  0  0  0  0  0  0  0  0  0
   13.0130  -12.0320    0.3750 F   0  0  0  0  0  0  0  0  0  0  0
    8.7660   -8.1850   -1.8680 O   0  0  0  0  0  0  0  0  0  0  0
    7.9040   -8.2430   -3.0090 C   0  0  0  0  0  0  0  0  0  0  0
   10.8070   -7.6600   -0.8480 H   0  0  0  0  0  0  0  0  0  0  0
   11.6360   -9.5730    1.3360 H   0  0  0  0  0  0  0  0  0  0  0
   12.1700   -9.4400   -0.3640 H   0  0  0  0  0  0  0  0  0  0  0
   12.8800   -6.0260    0.3360 H   0  0  0  0  0  0  0  0  0  0  0
   12.7810   -6.2720    2.1050 H   0  0  0  0  0  0  0  0  0  0  0
   10.5440   -5.8220    0.5820 H   0  0  0  0  0  0  0  0  0  0  0
   10.5460   -6.8340    2.0560 H   0  0  0  0  0  0  0  0  0  0  0
    9.6840   -9.0200    2.4540 H   0  0  0  0  0  0  0  0  0  0  0
    7.5410  -10.0550    2.8390 H   0  0  0  0  0  0  0  0  0  0  0
    5.9370  -10.2340    1.0290 H   0  0  0  0  0  0  0  0  0  0  0
    6.4800   -9.3750   -1.1550 H   0  0  0  0  0  0  0  0  0  0  0
   14.4450  -10.1040    0.0170 H   0  0  0  0  0  0  0  0  0  0  0
   15.7440   -9.8000    1.1600 H   0  0  0  0  0  0  0  0  0  0  0
   12.1180  -13.4490    2.2910 H   0  0  0  0  0  0  0  0  0  0  0
   12.5230  -13.0840    4.6470 H   0  0  0  0  0  0  0  0  0  0  0
   13.9180  -11.2430    5.3660 H   0  0  0  0  0  0  0  0  0  0  0
    8.4050   -7.7690   -3.8530 H   0  0  0  0  0  0  0  0  0  0  0
    7.6870   -9.2810   -3.2650 H   0  0  0  0  0  0  0  0  0  0  0
    6.9730   -7.7110   -2.8080 H   0  0  0  0  0  0  0  0  0  0  0
  1  2  1  0  0  0  0
  1  5  1  0  0  0  0
  1  6  1  0  0  0  0
  1 25  1  0  0  0  0
  2  3  1  0  0  0  0
  2 26  1  0  0  0  0
  2 27  1  0  0  0  0
  3  4  1  0  0  0  0
  3 12  1  0  0  0  0
  4  5  1  0  0  0  0
  4 28  1  0  0  0  0
  4 29  1  0  0  0  0
  5 30  1  0  0  0  0
  5 31  1  0  0  0  0
  6  7  2  0  0  0  0
  6 11  1  0  0  0  0
  7  8  1  0  0  0  0
  7 32  1  0  0  0  0
  8  9  2  0  0  0  0
  8 33  1  0  0  0  0
  9 10  1  0  0  0  0
  9 34  1  0  0  0  0
 10 11  2  0  0  0  0
 10 35  1  0  0  0  0
 11 23  1  0  0  0  0
 12 13  2  0  0  0  0
 12 14  1  0  0  0  0
 14 15  1  0  0  0  0
 14 36  1  0  0  0  0
 14 37  1  0  0  0  0
 15 16  2  0  0  0  0
 15 20  1  0  0  0  0
 16 17  1  0  0  0  0
 16 22  1  0  0  0  0
 17 18  2  0  0  0  0
 17 38  1  0  0  0  0
 18 19  1  0  0  0  0
 18 39  1  0  0  0  0
 19 20  2  0  0  0  0
 19 40  1  0  0  0  0
 20 21  1  0  0  0  0
 23 24  1  0  0  0  0
 24 41  1  0  0  0  0
 24 42  1  0  0  0  0
 24 43  1  0  0  0  0
M  END
> <From>
www.bindingDB.org

> <BindingDB Reactant_set_id>
51108812

> <Ligand InChI>
InChI=1S/C19H19F2NO2/c1-24-18-8-3-2-5-14(18)13-9-10-22(12-13)19(23)11-15-16(20)6-4-7-17(15)21/h2-8,13H,9-12H2,1H3

> <Ligand InChI Key>
LNUWPMFROIHGLW-UHFFFAOYSA-N

> <BindingDB MonomerID>
50452499

> <BindingDB Ligand Name>
CHEMBL4213777

> <Target Name>
Enoyl-[acyl-carrier-protein] reductase [NADPH] FabI [9-251]

> <Target Source Organism According to Curator or DataSource>
Staphylococcus aureus

> <Ki (nM)>
 2100

> <IC50 (nM)>


> <Kd (nM)>


> <EC50 (nM)>


> <kon (M-1-s-1)>


> <koff (s-1)>


> <pH>


> <Temp C>


> <Curation/DataSource>
ChEMBL

> <Article DOI>
10.1016/j.bmc.2017.11.018

> <BindingDB Entry DOI>
10.7270/Q2QF8WF7

> <PMID>
29162308

> <PubChem AID>


> <Patent Number>


> <Authors>
Kwon, J; Mistry, T; Ren, J; Johnson, ME; Mehboob, S

> <Institution>
Novalex Therapeutics

> <Link to Ligand in BindingDB>
http://www.bindingdb.org/bind/chemsearch/marvin/MolStructure.jsp?monomerid=50452499

> <Link to Ligand-Target Pair in BindingDB>
http://www.bindingdb.org/jsp/dbsearch/PrimarySearch_ki.jsp?energyterm=kJ/mole&tag=pol&polymerid=50004708&target=Enoyl-%5Bacyl-carrier-protein%5D+reductase+%5BNADPH%5D+FabI+%5B9-251%5D&column=ki&startPg=0&Increment=50&submit=Search

> <Link to Ligand-Target Pair in BindingDB>
http://www.bindingdb.org/jsp/dbsearch/PrimarySearch_ki.jsp?energyterm=kJ/mole&tag=r21&monomerid=50452499&enzyme=Enoyl-%5Bacyl-carrier-protein%5D+reductase+%5BNADPH%5D+FabI+%5B9-251%5D&column=ki&startPg=0&Increment=50&submit=Search

> <Ligand HET ID in PDB>


> <PDB ID(s) for Ligand-Target Complex>


> <PubChem CID of Ligand>
119106337

> <PubChem SID of Ligand>
433921355

> <ChEBI ID of Ligand>


> <ChEMBL ID of Ligand>


> <DrugBank ID of Ligand>


> <IUPHAR_GRAC ID of Ligand>


> <KEGG ID of Ligand>


> <ZINC ID of Ligand>


> <Number of Protein Chains in Target (bigger than 1 implies a multichain complex)>
1

> <BindingDB Target Chain Sequence>
YVIMGIANKRSIAFGVAKVLDQLGAKLVFTYRKERSRKELEKLLEQLNQPEAHLYQIDVQSDEEVINGFEQIGKDVGNIDGVYHSIAFANMEDLRGRFSETSREGFLLAQDISSYSLTIVAHEAKKLMPEGGSIVATTYLGGEFAVQNYNVMGVAKASLEANVKYLALDLGPDNIRVNAISAGPIRTLSAKGVGGFNTILKEIEERAPLKRNVDQVEVGKTAAYLLSDLSSGVTGENIHVDSG

> <PDB ID(s) of Target Chain>
3GNS,3GNT,3GR6,4ALI,4ALJ,4ALK,4ALL,4ALM,4ALN,4BNF,4BNG,4BNH,4BNI,4BNJ,4BNK,4BNL,4BNM,4BNN,4CUZ,4CV0,4CV1,4D41,4D42,4D43,4D44,4D45,4FS3,4NZ9,6TBB,6TBC,6YUR

> <UniProt (SwissProt) Recommended Name of Target Chain>
Enoyl-[acyl-carrier-protein] reductase [NADPH] FabI

> <UniProt (SwissProt) Entry Name of Target Chain>
FABI_STAAR

> <UniProt (SwissProt) Primary ID of Target Chain>
Q6GI75

> <UniProt (SwissProt) Secondary ID(s) of Target Chain>


> <UniProt (SwissProt) Alternative ID(s) of Target Chain>


> <UniProt (TrEMBL) Submitted Name of Target Chain>


> <UniProt (TrEMBL) Entry Name of Target Chain>


> <UniProt (TrEMBL) Primary ID of Target Chain>


> <UniProt (TrEMBL) Secondary ID(s) of Target Chain>


> <UniProt (TrEMBL) Alternative ID(s) of Target Chain>


$$$$
BindingDB_50452507_mol_1

Vconf v2.0 Academic SN VC001-00000579
 30 31  0  0  0  0  0  0  0  0999 V2000
    4.0250   -2.4040    0.5970 C   0  0  0  0  0  0  0  0  0  0  0
    3.9140   -3.8140    0.5740 C   0  0  0  0  0  0  0  0  0  0  0
    2.8060   -1.6980    0.5150 C   0  0  0  0  0  0  0  0  0  0  0
    2.6970   -4.4030    0.4800 N   0  0  0  0  0  0  0  0  0  0  0
    5.2240   -1.7510    0.6900 N   0  3  0  0  0  0  0  0  0  0  0
    1.6220   -2.3440    0.4240 N   0  0  0  0  0  0  0  0  0  0  0
    1.5520   -3.6920    0.4050 C   0  0  0  0  0  0  0  0  0  0  0
    5.0010   -4.6160    0.6430 N   0  0  0  0  0  0  0  0  0  0  0
    5.3130   -0.5510    0.7060 O   0  5  0  0  0  0  0  0  0  0  0
    2.7610   -0.3500    0.5240 O   0  0  0  0  0  0  0  0  0  0  0
    6.2740   -2.3320    0.7610 O   0  0  0  0  0  0  0  0  0  0  0
    7.9360   -7.9280    1.8190 N   0  0  0  0  0  0  0  0  0  0  0
    6.2840   -6.6110    0.6880 C   0  0  0  0  0  0  0  0  0  0  0
    4.9290   -6.0360    0.6160 C   0  0  0  0  0  0  0  0  0  0  0
    6.6810   -7.4130    1.7760 C   0  0  0  0  0  0  0  0  0  0  0
    0.2650   -4.3780    0.3080 C   0  0  0  0  0  0  0  0  0  0  0
    8.8540   -7.7080    0.8450 C   0  0  0  0  0  0  0  0  0  0  0
    7.2210   -6.3740   -0.3360 C   0  0  0  0  0  0  0  0  0  0  0
    8.5130   -6.9190   -0.2640 C   0  0  0  0  0  0  0  0  0  0  0
    5.8780   -4.2060    0.7120 H   0  0  0  0  0  0  0  0  0  0  0
    1.8560    0.0200    0.4600 H   0  0  0  0  0  0  0  0  0  0  0
    4.3230   -6.3780    1.4580 H   0  0  0  0  0  0  0  0  0  0  0
    4.4520   -6.3640   -0.3100 H   0  0  0  0  0  0  0  0  0  0  0
    6.0300   -7.6080    2.5360 H   0  0  0  0  0  0  0  0  0  0  0
   -0.5460   -3.6500    0.2550 H   0  0  0  0  0  0  0  0  0  0  0
    0.2510   -4.9970   -0.5900 H   0  0  0  0  0  0  0  0  0  0  0
    0.1240   -5.0100    1.1840 H   0  0  0  0  0  0  0  0  0  0  0
    9.7860   -8.1150    0.9200 H   0  0  0  0  0  0  0  0  0  0  0
    6.9630   -5.7980   -1.1380 H   0  0  0  0  0  0  0  0  0  0  0
    9.1920   -6.7460   -1.0050 H   0  0  0  0  0  0  0  0  0  0  0
  1  2  1  0  0  0  0
  1  3  2  0  0  0  0
  1  5  1  0  0  0  0
  2  4  2  0  0  0  0
  2  8  1  0  0  0  0
  3  6  1  0  0  0  0
  3 10  1  0  0  0  0
  4  7  1  0  0  0  0
  5  9  1  0  0  0  0
  5 11  2  0  0  0  0
  6  7  2  0  0  0  0
  7 16  1  0  0  0  0
  8 14  1  0  0  0  0
  8 20  1  0  0  0  0
 10 21  1  0  0  0  0
 12 15  1  0  0  0  0
 12 17  2  0  0  0  0
 13 14  1  0  0  0  0
 13 15  2  0  0  0  0
 13 18  1  0  0  0  0
 14 22  1  0  0  0  0
 14 23  1  0  0  0  0
 15 24  1  0  0  0  0
 16 25  1  0  0  0  0
 16 26  1  0  0  0  0
 16 27  1  0  0  0  0
 17 19  1  0  0  0  0
 17 28  1  0  0  0  0
 18 19  2  0  0  0  0
 18 29  1  0  0  0  0
 19 30  1  0  0  0  0
M  CHG  1   5   1
M  CHG  1   9  -1
M  END
> <From>
www.bindingDB.org

> <BindingDB Reactant_set_id>
51108792

> <Ligand InChI>
InChI=1S/C15H15ClN2OS/c16-13-4-2-1-3-11(13)9-14(19)18-7-5-12(10-18)15-17-6-8-20-15/h1-4,6,8,12H,5,7,9-10H2

> <Ligand InChI Key>
WMYYVTZDNMPJTP-UHFFFAOYSA-N

> <BindingDB MonomerID>
50452507

> <BindingDB Ligand Name>
CHEMBL4205014

> <Target Name>
Enoyl-[acyl-carrier-protein] reductase [NADPH] FabI [9-251]

> <Target Source Organism According to Curator or DataSource>
Staphylococcus aureus

> <Ki (nM)>
 2200

> <IC50 (nM)>


> <Kd (nM)>


> <EC50 (nM)>


> <kon (M-1-s-1)>


> <koff (s-1)>


> <pH>


> <Temp C>


> <Curation/DataSource>
ChEMBL

> <Article DOI>
10.1016/j.bmc.2017.11.018

> <BindingDB Entry DOI>
10.7270/Q2QF8WF7

> <PMID>
29162308

> <PubChem AID>


> <Patent Number>


> <Authors>
Kwon, J; Mistry, T; Ren, J; Johnson, ME; Mehboob, S

> <Institution>
Novalex Therapeutics

> <Link to Ligand in BindingDB>
http://www.bindingdb.org/bind/chemsearch/marvin/MolStructure.jsp?monomerid=50452507

> <Link to Ligand-Target Pair in BindingDB>
http://www.bindingdb.org/jsp/dbsearch/PrimarySearch_ki.jsp?energyterm=kJ/mole&tag=pol&polymerid=50004708&target=Enoyl-%5Bacyl-carrier-protein%5D+reductase+%5BNADPH%5D+FabI+%5B9-251%5D&column=ki&startPg=0&Increment=50&submit=Search

> <Link to Ligand-Target Pair in BindingDB>
http://www.bindingdb.org/jsp/dbsearch/PrimarySearch_ki.jsp?energyterm=kJ/mole&tag=r21&monomerid=50452507&enzyme=Enoyl-%5Bacyl-carrier-protein%5D+reductase+%5BNADPH%5D+FabI+%5B9-251%5D&column=ki&startPg=0&Increment=50&submit=Search

> <Ligand HET ID in PDB>


> <PDB ID(s) for Ligand-Target Complex>


> <PubChem CID of Ligand>
122243070

> <PubChem SID of Ligand>
433921363

> <ChEBI ID of Ligand>


> <ChEMBL ID of Ligand>


> <DrugBank ID of Ligand>


> <IUPHAR_GRAC ID of Ligand>


> <KEGG ID of Ligand>


> <ZINC ID of Ligand>


> <Number of Protein Chains in Target (bigger than 1 implies a multichain complex)>
1

> <BindingDB Target Chain Sequence>
YVIMGIANKRSIAFGVAKVLDQLGAKLVFTYRKERSRKELEKLLEQLNQPEAHLYQIDVQSDEEVINGFEQIGKDVGNIDGVYHSIAFANMEDLRGRFSETSREGFLLAQDISSYSLTIVAHEAKKLMPEGGSIVATTYLGGEFAVQNYNVMGVAKASLEANVKYLALDLGPDNIRVNAISAGPIRTLSAKGVGGFNTILKEIEERAPLKRNVDQVEVGKTAAYLLSDLSSGVTGENIHVDSG

> <PDB ID(s) of Target Chain>
3GNS,3GNT,3GR6,4ALI,4ALJ,4ALK,4ALL,4ALM,4ALN,4BNF,4BNG,4BNH,4BNI,4BNJ,4BNK,4BNL,4BNM,4BNN,4CUZ,4CV0,4CV1,4D41,4D42,4D43,4D44,4D45,4FS3,4NZ9,6TBB,6TBC,6YUR

> <UniProt (SwissProt) Recommended Name of Target Chain>
Enoyl-[acyl-carrier-protein] reductase [NADPH] FabI

> <UniProt (SwissProt) Entry Name of Target Chain>
FABI_STAAR

> <UniProt (SwissProt) Primary ID of Target Chain>
Q6GI75

> <UniProt (SwissProt) Secondary ID(s) of Target Chain>


> <UniProt (SwissProt) Alternative ID(s) of Target Chain>


> <UniProt (TrEMBL) Submitted Name of Target Chain>


> <UniProt (TrEMBL) Entry Name of Target Chain>


> <UniProt (TrEMBL) Primary ID of Target Chain>


> <UniProt (TrEMBL) Secondary ID(s) of Target Chain>


> <UniProt (TrEMBL) Alternative ID(s) of Target Chain>


$$$$
BindingDB_50329257_mol_1

Vconf v2.0 Academic SN VC001-00000579
 49 48  0  0  0  0  0  0  0  0999 V2000
   -1.0880   -5.6850    0.0400 C   0  0  0  0  0  0  0  0  0  0  0
    0.0950   -6.6590   -0.0590 C   0  0  0  0  0  0  0  0  0  0  0
    1.4260   -5.9050    0.0810 C   0  0  0  0  0  0  0  0  0  0  0
    2.6060   -6.8820   -0.0210 C   0  0  0  0  0  0  0  0  0  0  0
    3.9390   -6.1320    0.1240 C   0  0  0  0  0  0  0  0  0  0  0
    5.1170   -7.1120    0.0210 C   0  0  0  0  0  0  0  0  0  0  0
    6.4500   -6.3660    0.1780 C   0  0  0  0  0  0  0  0  0  0  0
    7.6280   -7.3460    0.0760 C   0  0  0  0  0  0  0  0  0  0  0
    8.9590   -6.5990    0.2500 C   0  0  0  0  0  0  0  0  0  0  0
   10.1410   -7.5760    0.1530 C   0  0  0  0  0  0  0  0  0  0  0
   11.4680   -6.8270    0.3440 C   0  0  0  0  0  0  0  0  0  0  0
   12.6510   -7.8080    0.2490 C   0  0  0  0  0  0  0  0  0  0  0
   13.8460   -7.1690    0.4270 C   0  0  0  0  0  0  0  0  0  0  0
   14.8890   -6.6090    0.5830 C   0  0  0  0  0  0  0  0  0  0  0
   15.9930   -6.0160    0.7490 C   0  0  0  0  0  0  0  0  0  0  0
   17.1280   -6.6570    0.5510 O   0  0  0  0  0  0  0  0  0  0  0
   16.0190   -4.8470    1.0950 O   0  0  0  0  0  0  0  0  0  0  0
   -2.4180   -6.4410   -0.0970 C   0  0  0  0  0  0  0  0  0  0  0
   -3.6020   -5.4710   -0.0010 C   0  0  0  0  0  0  0  0  0  0  0
   -1.0590   -5.1780    1.0060 H   0  0  0  0  0  0  0  0  0  0  0
   -1.0110   -4.9420   -0.7560 H   0  0  0  0  0  0  0  0  0  0  0
    0.0170   -7.4020    0.7360 H   0  0  0  0  0  0  0  0  0  0  0
    0.0660   -7.1640   -1.0260 H   0  0  0  0  0  0  0  0  0  0  0
    1.5040   -5.1600   -0.7130 H   0  0  0  0  0  0  0  0  0  0  0
    1.4560   -5.4020    1.0480 H   0  0  0  0  0  0  0  0  0  0  0
    2.5250   -7.6290    0.7690 H   0  0  0  0  0  0  0  0  0  0  0
    2.5780   -7.3820   -0.9910 H   0  0  0  0  0  0  0  0  0  0  0
    4.0210   -5.3840   -0.6650 H   0  0  0  0  0  0  0  0  0  0  0
    3.9680   -5.6340    1.0940 H   0  0  0  0  0  0  0  0  0  0  0
    5.0300   -7.8650    0.8060 H   0  0  0  0  0  0  0  0  0  0  0
    5.0920   -7.6050   -0.9520 H   0  0  0  0  0  0  0  0  0  0  0
    6.5380   -5.6130   -0.6070 H   0  0  0  0  0  0  0  0  0  0  0
    6.4740   -5.8730    1.1510 H   0  0  0  0  0  0  0  0  0  0  0
    7.5360   -8.1040    0.8550 H   0  0  0  0  0  0  0  0  0  0  0
    7.6110   -7.8310   -0.9000 H   0  0  0  0  0  0  0  0  0  0  0
    9.0520   -5.8420   -0.5290 H   0  0  0  0  0  0  0  0  0  0  0
    8.9740   -6.1120    1.2260 H   0  0  0  0  0  0  0  0  0  0  0
   10.0420   -8.3390    0.9260 H   0  0  0  0  0  0  0  0  0  0  0
   10.1330   -8.0550   -0.8270 H   0  0  0  0  0  0  0  0  0  0  0
   11.5590   -6.0630   -0.4300 H   0  0  0  0  0  0  0  0  0  0  0
   11.4650   -6.3460    1.3240 H   0  0  0  0  0  0  0  0  0  0  0
   12.5460   -8.5760    1.0160 H   0  0  0  0  0  0  0  0  0  0  0
   12.6480   -8.2840   -0.7320 H   0  0  0  0  0  0  0  0  0  0  0
   17.9210   -6.1050    0.7090 H   0  0  0  0  0  0  0  0  0  0  0
   -2.4500   -6.9490   -1.0620 H   0  0  0  0  0  0  0  0  0  0  0
   -2.4980   -7.1820    0.6990 H   0  0  0  0  0  0  0  0  0  0  0
   -4.5340   -6.0260   -0.1000 H   0  0  0  0  0  0  0  0  0  0  0
   -3.5860   -4.9640    0.9640 H   0  0  0  0  0  0  0  0  0  0  0
   -3.5380   -4.7310   -0.8000 H   0  0  0  0  0  0  0  0  0  0  0
  1  2  1  0  0  0  0
  1 18  1  0  0  0  0
  1 20  1  0  0  0  0
  1 21  1  0  0  0  0
  2  3  1  0  0  0  0
  2 22  1  0  0  0  0
  2 23  1  0  0  0  0
  3  4  1  0  0  0  0
  3 24  1  0  0  0  0
  3 25  1  0  0  0  0
  4  5  1  0  0  0  0
  4 26  1  0  0  0  0
  4 27  1  0  0  0  0
  5  6  1  0  0  0  0
  5 28  1  0  0  0  0
  5 29  1  0  0  0  0
  6  7  1  0  0  0  0
  6 30  1  0  0  0  0
  6 31  1  0  0  0  0
  7  8  1  0  0  0  0
  7 32  1  0  0  0  0
  7 33  1  0  0  0  0
  8  9  1  0  0  0  0
  8 34  1  0  0  0  0
  8 35  1  0  0  0  0
  9 10  1  0  0  0  0
  9 36  1  0  0  0  0
  9 37  1  0  0  0  0
 10 11  1  0  0  0  0
 10 38  1  0  0  0  0
 10 39  1  0  0  0  0
 11 12  1  0  0  0  0
 11 40  1  0  0  0  0
 11 41  1  0  0  0  0
 12 13  1  0  0  0  0
 12 42  1  0  0  0  0
 12 43  1  0  0  0  0
 13 14  3  0  0  0  0
 14 15  1  0  0  0  0
 15 16  1  0  0  0  0
 15 17  2  0  0  0  0
 16 44  1  0  0  0  0
 18 19  1  0  0  0  0
 18 45  1  0  0  0  0
 18 46  1  0  0  0  0
 19 47  1  0  0  0  0
 19 48  1  0  0  0  0
 19 49  1  0  0  0  0
M  END
> <From>
www.bindingDB.org

> <BindingDB Reactant_set_id>
50605003

> <Ligand InChI>
InChI=1S/C17H30O2/c1-2-3-4-5-6-7-8-9-10-11-12-13-14-15-16-17(18)19/h2-14H2,1H3,(H,18,19)

> <Ligand InChI Key>
VHVMWCWIYITOLN-UHFFFAOYSA-N

> <BindingDB MonomerID>
50329257

> <BindingDB Ligand Name>
2-Hexadecynoic acid::CHEMBL1269411

> <Target Name>
Enoyl-ACP reductase

> <Target Source Organism According to Curator or DataSource>
Plasmodium falciparum

> <Ki (nM)>
 2580

> <IC50 (nM)>


> <Kd (nM)>


> <EC50 (nM)>


> <kon (M-1-s-1)>


> <koff (s-1)>


> <pH>


> <Temp C>


> <Curation/DataSource>
ChEMBL

> <Article DOI>
10.1016/j.bmc.2010.08.055

> <BindingDB Entry DOI>
10.7270/Q25Q4WB5

> <PMID>
20855214

> <PubChem AID>


> <Patent Number>


> <Authors>
Tasdemir, D; Sanabria, D; Lauinger, IL; Tarun, A; Herman, R; Perozzo, R; Zloh, M; Kappe, SH; Brun, R; Carballeira, NM

> <Institution>
University of London

> <Link to Ligand in BindingDB>
http://www.bindingdb.org/bind/chemsearch/marvin/MolStructure.jsp?monomerid=50329257

> <Link to Ligand-Target Pair in BindingDB>
http://www.bindingdb.org/jsp/dbsearch/PrimarySearch_ki.jsp?energyterm=kJ/mole&tag=pol&polymerid=2820&target=Enoyl-ACP+reductase&column=ki&startPg=0&Increment=50&submit=Search

> <Link to Ligand-Target Pair in BindingDB>
http://www.bindingdb.org/jsp/dbsearch/PrimarySearch_ki.jsp?energyterm=kJ/mole&tag=r21&monomerid=50329257&enzyme=Enoyl-ACP+reductase&column=ki&startPg=0&Increment=50&submit=Search

> <Ligand HET ID in PDB>


> <PDB ID(s) for Ligand-Target Complex>


> <PubChem CID of Ligand>
22600366

> <PubChem SID of Ligand>
123108372

> <ChEBI ID of Ligand>
51723

> <ChEMBL ID of Ligand>
CHEMBL1269411

> <DrugBank ID of Ligand>


> <IUPHAR_GRAC ID of Ligand>


> <KEGG ID of Ligand>


> <ZINC ID of Ligand>
ZINC64528516

> <Number of Protein Chains in Target (bigger than 1 implies a multichain complex)>
1

> <BindingDB Target Chain Sequence>
MNKISQRLLFLFLHFYTTVCFIQNNTQKTFHNVLQNEQIRGKEKAFYRKEKRENIFIGNK
MKHVHNMNNTHNNNHYMEKEEQDASNINKIKEENKNEDICFIAGIGDTNGYGWGIAKELS
KRNVKIIFGIWPPVYNIFMKNYKNGKFDNDMIIDKDKKMNILDMLPFDASFDTANDIDEE
TKNNKRYNMLQNYTIEDVANLIHQKYGKINMLVHSLANAKEVQKDLLNTSRKGYLDALSK
SSYSLISLCKYFVNIMKPQSSIISLTYHASQKVVPGYGGGMSSAKAALESDTRVLAYHLG
RNYNIRINTISAGPLKSRAATAINKLNNTYENNTNQNKNRNRHDVHNIMNNSGEKEEKKI
SASQNYTFIDYAIEYSEKYAPLRQKLLSTDIGSVASFLLSRESRAITGQTIYVDNGLNIM
FLPDDIYRNENE

> <PDB ID(s) of Target Chain>
1NHG,1NHW,1NNU,1UH5,1V35,2FOI,2NQ8,3LSY,3LT0,3LT1,3LT2,3LT4

> <UniProt (SwissProt) Recommended Name of Target Chain>


> <UniProt (SwissProt) Entry Name of Target Chain>


> <UniProt (SwissProt) Primary ID of Target Chain>


> <UniProt (SwissProt) Secondary ID(s) of Target Chain>


> <UniProt (SwissProt) Alternative ID(s) of Target Chain>


> <UniProt (TrEMBL) Submitted Name of Target Chain>
Enoyl-ACP reductase

> <UniProt (TrEMBL) Entry Name of Target Chain>
Q9BJJ9_PLAFA

> <UniProt (TrEMBL) Primary ID of Target Chain>
Q9BJJ9

> <UniProt (TrEMBL) Secondary ID(s) of Target Chain>


> <UniProt (TrEMBL) Alternative ID(s) of Target Chain>


$$$$
BindingDB_50452509_mol_1

Vconf v2.0 Academic SN VC001-00000579
 33 34  0  0  0  0  0  0  0  0999 V2000
    3.9980   -2.3640    0.5670 C   0  0  0  0  0  0  0  0  0  0  0
    3.9320   -3.7730    0.5470 C   0  0  0  0  0  0  0  0  0  0  0
    2.7190   -4.3750    0.4900 N   0  0  0  0  0  0  0  0  0  0  0
    2.7730   -1.6690    0.5250 C   0  0  0  0  0  0  0  0  0  0  0
    1.5980   -2.3410    0.4690 N   0  0  0  0  0  0  0  0  0  0  0
    1.5590   -3.6930    0.4510 C   0  0  0  0  0  0  0  0  0  0  0
    5.1290   -1.7290    0.6160 C   0  0  0  0  0  0  0  0  0  0  0
    6.1290   -1.1670    0.6590 N   0  0  0  0  0  0  0  0  0  0  0
    2.7170   -0.3190    0.5410 O   0  0  0  0  0  0  0  0  0  0  0
    5.0210   -4.5830    0.5870 N   0  0  0  0  0  0  0  0  0  0  0
    4.8670   -5.9970    0.5340 C   0  0  0  0  0  0  0  0  0  0  0
    0.3080   -4.4440    0.3980 C   0  0  0  0  0  0  0  0  0  0  0
    5.9590   -8.2160    0.5310 C   0  0  0  0  0  0  0  0  0  0  0
    6.1990   -6.7600    0.6420 C   0  0  0  0  0  0  0  0  0  0  0
    5.3100   -8.9130    1.5730 C   0  0  0  0  0  0  0  0  0  0  0
    6.3420   -8.9210   -0.6280 C   0  0  0  0  0  0  0  0  0  0  0
    6.0930  -10.3000   -0.7400 C   0  0  0  0  0  0  0  0  0  0  0
    5.0640  -10.2930    1.4630 C   0  0  0  0  0  0  0  0  0  0  0
    5.4570  -10.9870    0.3070 C   0  0  0  0  0  0  0  0  0  0  0
    1.8070    0.0420    0.5120 H   0  0  0  0  0  0  0  0  0  0  0
    5.9090   -4.1940    0.6470 H   0  0  0  0  0  0  0  0  0  0  0
    4.2150   -6.3110    1.3530 H   0  0  0  0  0  0  0  0  0  0  0
    4.3920   -6.2580   -0.4150 H   0  0  0  0  0  0  0  0  0  0  0
   -0.5420   -3.7660    0.3480 H   0  0  0  0  0  0  0  0  0  0  0
    0.3130   -5.0860   -0.4820 H   0  0  0  0  0  0  0  0  0  0  0
    0.2270   -5.0630    1.2910 H   0  0  0  0  0  0  0  0  0  0  0
    6.8600   -6.4180   -0.1570 H   0  0  0  0  0  0  0  0  0  0  0
    6.6720   -6.5370    1.6000 H   0  0  0  0  0  0  0  0  0  0  0
    5.0120   -8.4160    2.4130 H   0  0  0  0  0  0  0  0  0  0  0
    6.7940   -8.4290   -1.4000 H   0  0  0  0  0  0  0  0  0  0  0
    6.3690  -10.8020   -1.5850 H   0  0  0  0  0  0  0  0  0  0  0
    4.5950  -10.7900    2.2210 H   0  0  0  0  0  0  0  0  0  0  0
    5.2800  -11.9890    0.2280 H   0  0  0  0  0  0  0  0  0  0  0
  1  2  1  0  0  0  0
  1  4  2  0  0  0  0
  1  7  1  0  0  0  0
  2  3  2  0  0  0  0
  2 10  1  0  0  0  0
  3  6  1  0  0  0  0
  4  5  1  0  0  0  0
  4  9  1  0  0  0  0
  5  6  2  0  0  0  0
  6 12  1  0  0  0  0
  7  8  3  0  0  0  0
  9 20  1  0  0  0  0
 10 11  1  0  0  0  0
 10 21  1  0  0  0  0
 11 14  1  0  0  0  0
 11 22  1  0  0  0  0
 11 23  1  0  0  0  0
 12 24  1  0  0  0  0
 12 25  1  0  0  0  0
 12 26  1  0  0  0  0
 13 14  1  0  0  0  0
 13 15  2  0  0  0  0
 13 16  1  0  0  0  0
 14 27  1  0  0  0  0
 14 28  1  0  0  0  0
 15 18  1  0  0  0  0
 15 29  1  0  0  0  0
 16 17  2  0  0  0  0
 16 30  1  0  0  0  0
 17 19  1  0  0  0  0
 17 31  1  0  0  0  0
 18 19  2  0  0  0  0
 18 32  1  0  0  0  0
 19 33  1  0  0  0  0
M  END
> <From>
www.bindingDB.org

> <BindingDB Reactant_set_id>
51108788

> <Ligand InChI>
InChI=1S/C18H17F2NO/c19-16-8-4-7-14(18(16)20)11-17(22)21-10-9-15(12-21)13-5-2-1-3-6-13/h1-8,15H,9-12H2

> <Ligand InChI Key>
RZTOJYNAWPILPM-UHFFFAOYSA-N

> <BindingDB MonomerID>
50452509

> <BindingDB Ligand Name>
CHEMBL4217672

> <Target Name>
Enoyl-[acyl-carrier-protein] reductase [NADPH] FabI [9-251]

> <Target Source Organism According to Curator or DataSource>
Staphylococcus aureus

> <Ki (nM)>
 2700

> <IC50 (nM)>


> <Kd (nM)>


> <EC50 (nM)>


> <kon (M-1-s-1)>


> <koff (s-1)>


> <pH>


> <Temp C>


> <Curation/DataSource>
ChEMBL

> <Article DOI>
10.1016/j.bmc.2017.11.018

> <BindingDB Entry DOI>
10.7270/Q2QF8WF7

> <PMID>
29162308

> <PubChem AID>


> <Patent Number>


> <Authors>
Kwon, J; Mistry, T; Ren, J; Johnson, ME; Mehboob, S

> <Institution>
Novalex Therapeutics

> <Link to Ligand in BindingDB>
http://www.bindingdb.org/bind/chemsearch/marvin/MolStructure.jsp?monomerid=50452509

> <Link to Ligand-Target Pair in BindingDB>
http://www.bindingdb.org/jsp/dbsearch/PrimarySearch_ki.jsp?energyterm=kJ/mole&tag=pol&polymerid=50004708&target=Enoyl-%5Bacyl-carrier-protein%5D+reductase+%5BNADPH%5D+FabI+%5B9-251%5D&column=ki&startPg=0&Increment=50&submit=Search

> <Link to Ligand-Target Pair in BindingDB>
http://www.bindingdb.org/jsp/dbsearch/PrimarySearch_ki.jsp?energyterm=kJ/mole&tag=r21&monomerid=50452509&enzyme=Enoyl-%5Bacyl-carrier-protein%5D+reductase+%5BNADPH%5D+FabI+%5B9-251%5D&column=ki&startPg=0&Increment=50&submit=Search

> <Ligand HET ID in PDB>


> <PDB ID(s) for Ligand-Target Complex>


> <PubChem CID of Ligand>
119106335

> <PubChem SID of Ligand>
433921365

> <ChEBI ID of Ligand>


> <ChEMBL ID of Ligand>


> <DrugBank ID of Ligand>


> <IUPHAR_GRAC ID of Ligand>


> <KEGG ID of Ligand>


> <ZINC ID of Ligand>


> <Number of Protein Chains in Target (bigger than 1 implies a multichain complex)>
1

> <BindingDB Target Chain Sequence>
YVIMGIANKRSIAFGVAKVLDQLGAKLVFTYRKERSRKELEKLLEQLNQPEAHLYQIDVQSDEEVINGFEQIGKDVGNIDGVYHSIAFANMEDLRGRFSETSREGFLLAQDISSYSLTIVAHEAKKLMPEGGSIVATTYLGGEFAVQNYNVMGVAKASLEANVKYLALDLGPDNIRVNAISAGPIRTLSAKGVGGFNTILKEIEERAPLKRNVDQVEVGKTAAYLLSDLSSGVTGENIHVDSG

> <PDB ID(s) of Target Chain>
3GNS,3GNT,3GR6,4ALI,4ALJ,4ALK,4ALL,4ALM,4ALN,4BNF,4BNG,4BNH,4BNI,4BNJ,4BNK,4BNL,4BNM,4BNN,4CUZ,4CV0,4CV1,4D41,4D42,4D43,4D44,4D45,4FS3,4NZ9,6TBB,6TBC,6YUR

> <UniProt (SwissProt) Recommended Name of Target Chain>
Enoyl-[acyl-carrier-protein] reductase [NADPH] FabI

> <UniProt (SwissProt) Entry Name of Target Chain>
FABI_STAAR

> <UniProt (SwissProt) Primary ID of Target Chain>
Q6GI75

> <UniProt (SwissProt) Secondary ID(s) of Target Chain>


> <UniProt (SwissProt) Alternative ID(s) of Target Chain>


> <UniProt (TrEMBL) Submitted Name of Target Chain>


> <UniProt (TrEMBL) Entry Name of Target Chain>


> <UniProt (TrEMBL) Primary ID of Target Chain>


> <UniProt (TrEMBL) Secondary ID(s) of Target Chain>


> <UniProt (TrEMBL) Alternative ID(s) of Target Chain>


$$$$
BindingDB_50329257_mol_1

Vconf v2.0 Academic SN VC001-00000579
 49 48  0  0  0  0  0  0  0  0999 V2000
   -1.0880   -5.6850    0.0400 C   0  0  0  0  0  0  0  0  0  0  0
    0.0950   -6.6590   -0.0590 C   0  0  0  0  0  0  0  0  0  0  0
    1.4260   -5.9050    0.0810 C   0  0  0  0  0  0  0  0  0  0  0
    2.6060   -6.8820   -0.0210 C   0  0  0  0  0  0  0  0  0  0  0
    3.9390   -6.1320    0.1240 C   0  0  0  0  0  0  0  0  0  0  0
    5.1170   -7.1120    0.0210 C   0  0  0  0  0  0  0  0  0  0  0
    6.4500   -6.3660    0.1780 C   0  0  0  0  0  0  0  0  0  0  0
    7.6280   -7.3460    0.0760 C   0  0  0  0  0  0  0  0  0  0  0
    8.9590   -6.5990    0.2500 C   0  0  0  0  0  0  0  0  0  0  0
   10.1410   -7.5760    0.1530 C   0  0  0  0  0  0  0  0  0  0  0
   11.4680   -6.8270    0.3440 C   0  0  0  0  0  0  0  0  0  0  0
   12.6510   -7.8080    0.2490 C   0  0  0  0  0  0  0  0  0  0  0
   13.8460   -7.1690    0.4270 C   0  0  0  0  0  0  0  0  0  0  0
   14.8890   -6.6090    0.5830 C   0  0  0  0  0  0  0  0  0  0  0
   15.9930   -6.0160    0.7490 C   0  0  0  0  0  0  0  0  0  0  0
   17.1280   -6.6570    0.5510 O   0  0  0  0  0  0  0  0  0  0  0
   16.0190   -4.8470    1.0950 O   0  0  0  0  0  0  0  0  0  0  0
   -2.4180   -6.4410   -0.0970 C   0  0  0  0  0  0  0  0  0  0  0
   -3.6020   -5.4710   -0.0010 C   0  0  0  0  0  0  0  0  0  0  0
   -1.0590   -5.1780    1.0060 H   0  0  0  0  0  0  0  0  0  0  0
   -1.0110   -4.9420   -0.7560 H   0  0  0  0  0  0  0  0  0  0  0
    0.0170   -7.4020    0.7360 H   0  0  0  0  0  0  0  0  0  0  0
    0.0660   -7.1640   -1.0260 H   0  0  0  0  0  0  0  0  0  0  0
    1.5040   -5.1600   -0.7130 H   0  0  0  0  0  0  0  0  0  0  0
    1.4560   -5.4020    1.0480 H   0  0  0  0  0  0  0  0  0  0  0
    2.5250   -7.6290    0.7690 H   0  0  0  0  0  0  0  0  0  0  0
    2.5780   -7.3820   -0.9910 H   0  0  0  0  0  0  0  0  0  0  0
    4.0210   -5.3840   -0.6650 H   0  0  0  0  0  0  0  0  0  0  0
    3.9680   -5.6340    1.0940 H   0  0  0  0  0  0  0  0  0  0  0
    5.0300   -7.8650    0.8060 H   0  0  0  0  0  0  0  0  0  0  0
    5.0920   -7.6050   -0.9520 H   0  0  0  0  0  0  0  0  0  0  0
    6.5380   -5.6130   -0.6070 H   0  0  0  0  0  0  0  0  0  0  0
    6.4740   -5.8730    1.1510 H   0  0  0  0  0  0  0  0  0  0  0
    7.5360   -8.1040    0.8550 H   0  0  0  0  0  0  0  0  0  0  0
    7.6110   -7.8310   -0.9000 H   0  0  0  0  0  0  0  0  0  0  0
    9.0520   -5.8420   -0.5290 H   0  0  0  0  0  0  0  0  0  0  0
    8.9740   -6.1120    1.2260 H   0  0  0  0  0  0  0  0  0  0  0
   10.0420   -8.3390    0.9260 H   0  0  0  0  0  0  0  0  0  0  0
   10.1330   -8.0550   -0.8270 H   0  0  0  0  0  0  0  0  0  0  0
   11.5590   -6.0630   -0.4300 H   0  0  0  0  0  0  0  0  0  0  0
   11.4650   -6.3460    1.3240 H   0  0  0  0  0  0  0  0  0  0  0
   12.5460   -8.5760    1.0160 H   0  0  0  0  0  0  0  0  0  0  0
   12.6480   -8.2840   -0.7320 H   0  0  0  0  0  0  0  0  0  0  0
   17.9210   -6.1050    0.7090 H   0  0  0  0  0  0  0  0  0  0  0
   -2.4500   -6.9490   -1.0620 H   0  0  0  0  0  0  0  0  0  0  0
   -2.4980   -7.1820    0.6990 H   0  0  0  0  0  0  0  0  0  0  0
   -4.5340   -6.0260   -0.1000 H   0  0  0  0  0  0  0  0  0  0  0
   -3.5860   -4.9640    0.9640 H   0  0  0  0  0  0  0  0  0  0  0
   -3.5380   -4.7310   -0.8000 H   0  0  0  0  0  0  0  0  0  0  0
  1  2  1  0  0  0  0
  1 18  1  0  0  0  0
  1 20  1  0  0  0  0
  1 21  1  0  0  0  0
  2  3  1  0  0  0  0
  2 22  1  0  0  0  0
  2 23  1  0  0  0  0
  3  4  1  0  0  0  0
  3 24  1  0  0  0  0
  3 25  1  0  0  0  0
  4  5  1  0  0  0  0
  4 26  1  0  0  0  0
  4 27  1  0  0  0  0
  5  6  1  0  0  0  0
  5 28  1  0  0  0  0
  5 29  1  0  0  0  0
  6  7  1  0  0  0  0
  6 30  1  0  0  0  0
  6 31  1  0  0  0  0
  7  8  1  0  0  0  0
  7 32  1  0  0  0  0
  7 33  1  0  0  0  0
  8  9  1  0  0  0  0
  8 34  1  0  0  0  0
  8 35  1  0  0  0  0
  9 10  1  0  0  0  0
  9 36  1  0  0  0  0
  9 37  1  0  0  0  0
 10 11  1  0  0  0  0
 10 38  1  0  0  0  0
 10 39  1  0  0  0  0
 11 12  1  0  0  0  0
 11 40  1  0  0  0  0
 11 41  1  0  0  0  0
 12 13  1  0  0  0  0
 12 42  1  0  0  0  0
 12 43  1  0  0  0  0
 13 14  3  0  0  0  0
 14 15  1  0  0  0  0
 15 16  1  0  0  0  0
 15 17  2  0  0  0  0
 16 44  1  0  0  0  0
 18 19  1  0  0  0  0
 18 45  1  0  0  0  0
 18 46  1  0  0  0  0
 19 47  1  0  0  0  0
 19 48  1  0  0  0  0
 19 49  1  0  0  0  0
M  END
> <From>
www.bindingDB.org

> <BindingDB Reactant_set_id>
50605002

> <Ligand InChI>
InChI=1S/C17H30O2/c1-2-3-4-5-6-7-8-9-10-11-12-13-14-15-16-17(18)19/h2-14H2,1H3,(H,18,19)

> <Ligand InChI Key>
VHVMWCWIYITOLN-UHFFFAOYSA-N

> <BindingDB MonomerID>
50329257

> <BindingDB Ligand Name>
2-Hexadecynoic acid::CHEMBL1269411

> <Target Name>
Enoyl-ACP reductase

> <Target Source Organism According to Curator or DataSource>
Plasmodium falciparum

> <Ki (nM)>
 2900

> <IC50 (nM)>


> <Kd (nM)>


> <EC50 (nM)>


> <kon (M-1-s-1)>


> <koff (s-1)>


> <pH>


> <Temp C>


> <Curation/DataSource>
ChEMBL

> <Article DOI>
10.1016/j.bmc.2010.08.055

> <BindingDB Entry DOI>
10.7270/Q25Q4WB5

> <PMID>
20855214

> <PubChem AID>


> <Patent Number>


> <Authors>
Tasdemir, D; Sanabria, D; Lauinger, IL; Tarun, A; Herman, R; Perozzo, R; Zloh, M; Kappe, SH; Brun, R; Carballeira, NM

> <Institution>
University of London

> <Link to Ligand in BindingDB>
http://www.bindingdb.org/bind/chemsearch/marvin/MolStructure.jsp?monomerid=50329257

> <Link to Ligand-Target Pair in BindingDB>
http://www.bindingdb.org/jsp/dbsearch/PrimarySearch_ki.jsp?energyterm=kJ/mole&tag=pol&polymerid=2820&target=Enoyl-ACP+reductase&column=ki&startPg=0&Increment=50&submit=Search

> <Link to Ligand-Target Pair in BindingDB>
http://www.bindingdb.org/jsp/dbsearch/PrimarySearch_ki.jsp?energyterm=kJ/mole&tag=r21&monomerid=50329257&enzyme=Enoyl-ACP+reductase&column=ki&startPg=0&Increment=50&submit=Search

> <Ligand HET ID in PDB>


> <PDB ID(s) for Ligand-Target Complex>


> <PubChem CID of Ligand>
22600366

> <PubChem SID of Ligand>
123108372

> <ChEBI ID of Ligand>
51723

> <ChEMBL ID of Ligand>
CHEMBL1269411

> <DrugBank ID of Ligand>


> <IUPHAR_GRAC ID of Ligand>


> <KEGG ID of Ligand>


> <ZINC ID of Ligand>
ZINC64528516

> <Number of Protein Chains in Target (bigger than 1 implies a multichain complex)>
1

> <BindingDB Target Chain Sequence>
MNKISQRLLFLFLHFYTTVCFIQNNTQKTFHNVLQNEQIRGKEKAFYRKEKRENIFIGNK
MKHVHNMNNTHNNNHYMEKEEQDASNINKIKEENKNEDICFIAGIGDTNGYGWGIAKELS
KRNVKIIFGIWPPVYNIFMKNYKNGKFDNDMIIDKDKKMNILDMLPFDASFDTANDIDEE
TKNNKRYNMLQNYTIEDVANLIHQKYGKINMLVHSLANAKEVQKDLLNTSRKGYLDALSK
SSYSLISLCKYFVNIMKPQSSIISLTYHASQKVVPGYGGGMSSAKAALESDTRVLAYHLG
RNYNIRINTISAGPLKSRAATAINKLNNTYENNTNQNKNRNRHDVHNIMNNSGEKEEKKI
SASQNYTFIDYAIEYSEKYAPLRQKLLSTDIGSVASFLLSRESRAITGQTIYVDNGLNIM
FLPDDIYRNENE

> <PDB ID(s) of Target Chain>
1NHG,1NHW,1NNU,1UH5,1V35,2FOI,2NQ8,3LSY,3LT0,3LT1,3LT2,3LT4

> <UniProt (SwissProt) Recommended Name of Target Chain>


> <UniProt (SwissProt) Entry Name of Target Chain>


> <UniProt (SwissProt) Primary ID of Target Chain>


> <UniProt (SwissProt) Secondary ID(s) of Target Chain>


> <UniProt (SwissProt) Alternative ID(s) of Target Chain>


> <UniProt (TrEMBL) Submitted Name of Target Chain>
Enoyl-ACP reductase

> <UniProt (TrEMBL) Entry Name of Target Chain>
Q9BJJ9_PLAFA

> <UniProt (TrEMBL) Primary ID of Target Chain>
Q9BJJ9

> <UniProt (TrEMBL) Secondary ID(s) of Target Chain>


> <UniProt (TrEMBL) Alternative ID(s) of Target Chain>


$$$$
BindingDB_51108770_3D

Vconf v2.1
 39 41  0  0  0  0  0  0  0  0999 V2000
    3.3960   -2.4390   -0.1050 C   0  0  2  0  0  0  0  0  0  0  0
    4.0600   -3.8050    0.1310 C   0  0  0  0  0  0  0  0  0  0  0
    5.3390   -3.4910    0.6630 N   0  0  0  0  0  0  0  0  0  0  0
    5.4970   -2.1250    1.0200 C   0  0  0  0  0  0  0  0  0  0  0
    4.0940   -1.5230    0.9090 C   0  0  0  0  0  0  0  0  0  0  0
    1.9170   -2.4540   -0.0040 C   0  0  0  0  0  0  0  0  0  0  0
    1.2730   -2.8510    1.1870 C   0  0  0  0  0  0  0  0  0  0  0
   -0.1300   -2.8660    1.2720 C   0  0  0  0  0  0  0  0  0  0  0
   -0.9040   -2.4850    0.1640 C   0  0  0  0  0  0  0  0  0  0  0
   -0.2750   -2.0890   -1.0280 C   0  0  0  0  0  0  0  0  0  0  0
    1.1280   -2.0740   -1.1100 C   0  0  0  0  0  0  0  0  0  0  0
    6.3410   -4.4000    0.8180 C   0  0  0  0  0  0  0  0  0  0  0
    7.4460   -4.0150    1.2640 O   0  0  0  0  0  0  0  0  0  0  0
    6.2000   -5.8270    0.4710 C   0  0  0  0  0  0  0  0  0  0  0
    5.2680   -6.5640    1.3650 C   0  0  0  0  0  0  0  0  0  0  0
    5.5810   -6.6100    2.7430 C   0  0  0  0  0  0  0  0  0  0  0
    4.7560   -7.2880    3.6540 C   0  0  0  0  0  0  0  0  0  0  0
    3.6040   -7.9430    3.1980 C   0  0  0  0  0  0  0  0  0  0  0
    3.2820   -7.9230    1.8320 C   0  0  0  0  0  0  0  0  0  0  0
    4.1070   -7.2450    0.9110 C   0  0  0  0  0  0  0  0  0  0  0
    3.6400   -7.3030   -0.7190 Cl  0  0  0  0  0  0  0  0  0  0  0
    3.6990   -2.1020   -1.0990 H   0  0  0  0  0  0  0  0  0  0  0
    3.5040   -4.4090    0.8490 H   0  0  0  0  0  0  0  0  0  0  0
    4.1450   -4.3330   -0.8200 H   0  0  0  0  0  0  0  0  0  0  0
    5.8650   -2.0210    2.0430 H   0  0  0  0  0  0  0  0  0  0  0
    6.1800   -1.6330    0.3250 H   0  0  0  0  0  0  0  0  0  0  0
    4.1310   -0.4920    0.5560 H   0  0  0  0  0  0  0  0  0  0  0
    3.6090   -1.5680    1.8850 H   0  0  0  0  0  0  0  0  0  0  0
    1.8260   -3.1330    1.9970 H   0  0  0  0  0  0  0  0  0  0  0
   -0.5860   -3.1540    2.1380 H   0  0  0  0  0  0  0  0  0  0  0
   -1.9230   -2.4970    0.2240 H   0  0  0  0  0  0  0  0  0  0  0
   -0.8360   -1.8130   -1.8340 H   0  0  0  0  0  0  0  0  0  0  0
    1.5750   -1.7850   -1.9810 H   0  0  0  0  0  0  0  0  0  0  0
    5.9040   -5.8860   -0.5740 H   0  0  0  0  0  0  0  0  0  0  0
    7.1810   -6.3010    0.5520 H   0  0  0  0  0  0  0  0  0  0  0
    6.4190   -6.1400    3.0900 H   0  0  0  0  0  0  0  0  0  0  0
    4.9950   -7.3050    4.6460 H   0  0  0  0  0  0  0  0  0  0  0
    3.0020   -8.4370    3.8570 H   0  0  0  0  0  0  0  0  0  0  0
    2.4420   -8.4110    1.5170 H   0  0  0  0  0  0  0  0  0  0  0
  1  2  1  0  0  0  0
  1  5  1  0  0  0  0
  1  6  1  0  0  0  0
  1 22  1  0  0  0  0
  2  3  1  0  0  0  0
  2 23  1  0  0  0  0
  2 24  1  0  0  0  0
  3  4  1  0  0  0  0
  3 12  1  0  0  0  0
  4  5  1  0  0  0  0
  4 25  1  0  0  0  0
  4 26  1  0  0  0  0
  5 27  1  0  0  0  0
  5 28  1  0  0  0  0
  6  7  2  0  0  0  0
  6 11  1  0  0  0  0
  7  8  1  0  0  0  0
  7 29  1  0  0  0  0
  8  9  2  0  0  0  0
  8 30  1  0  0  0  0
  9 10  1  0  0  0  0
  9 31  1  0  0  0  0
 10 11  2  0  0  0  0
 10 32  1  0  0  0  0
 11 33  1  0  0  0  0
 12 13  2  0  0  0  0
 12 14  1  0  0  0  0
 14 15  1  0  0  0  0
 14 34  1  0  0  0  0
 14 35  1  0  0  0  0
 15 16  2  0  0  0  0
 15 20  1  0  0  0  0
 16 17  1  0  0  0  0
 16 36  1  0  0  0  0
 17 18  2  0  0  0  0
 17 37  1  0  0  0  0
 18 19  1  0  0  0  0
 18 38  1  0  0  0  0
 19 20  2  0  0  0  0
 19 39  1  0  0  0  0
 20 21  1  0  0  0  0
M  END
> <From>
www.bindingDB.org

> <BindingDB Reactant_set_id>
51108770

> <Ligand InChI>
InChI=1S/C18H18ClNO/c19-17-9-5-4-8-15(17)12-18(21)20-11-10-16(13-20)14-6-2-1-3-7-14/h1-9,16H,10-13H2

> <Ligand InChI Key>
FHGKKJDHEDLAIJ-UHFFFAOYSA-N

> <BindingDB MonomerID>
50452497

> <BindingDB Ligand Name>
CHEMBL4205565

> <Target Name>
Enoyl-[acyl-carrier-protein] reductase [NADPH] FabI [9-251]

> <Target Source Organism According to Curator or DataSource>
Staphylococcus aureus

> <Ki (nM)>
 4000

> <IC50 (nM)>


> <Kd (nM)>


> <EC50 (nM)>


> <kon (M-1-s-1)>


> <koff (s-1)>


> <pH>


> <Temp C>


> <Curation/DataSource>
ChEMBL

> <Article DOI>
10.1016/j.bmc.2017.11.018

> <BindingDB Entry DOI>
10.7270/Q2QF8WF7

> <PMID>
29162308

> <PubChem AID>


> <Patent Number>


> <Authors>
Kwon, J; Mistry, T; Ren, J; Johnson, ME; Mehboob, S

> <Institution>
Novalex Therapeutics

> <Link to Ligand in BindingDB>
http://www.bindingdb.org/bind/chemsearch/marvin/MolStructure.jsp?monomerid=50452497

> <Link to Ligand-Target Pair in BindingDB>
http://www.bindingdb.org/jsp/dbsearch/PrimarySearch_ki.jsp?energyterm=kJ/mole&tag=pol&polymerid=50004708&target=Enoyl-%5Bacyl-carrier-protein%5D+reductase+%5BNADPH%5D+FabI+%5B9-251%5D&column=ki&startPg=0&Increment=50&submit=Search

> <Link to Ligand-Target Pair in BindingDB>
http://www.bindingdb.org/jsp/dbsearch/PrimarySearch_ki.jsp?energyterm=kJ/mole&tag=r21&monomerid=50452497&enzyme=Enoyl-%5Bacyl-carrier-protein%5D+reductase+%5BNADPH%5D+FabI+%5B9-251%5D&column=ki&startPg=0&Increment=50&submit=Search

> <Ligand HET ID in PDB>


> <PDB ID(s) for Ligand-Target Complex>


> <PubChem CID of Ligand>
45555616

> <PubChem SID of Ligand>
433921353

> <ChEBI ID of Ligand>


> <ChEMBL ID of Ligand>


> <DrugBank ID of Ligand>


> <IUPHAR_GRAC ID of Ligand>


> <KEGG ID of Ligand>


> <ZINC ID of Ligand>


> <Number of Protein Chains in Target (bigger than 1 implies a multichain complex)>
1

> <BindingDB Target Chain Sequence>
YVIMGIANKRSIAFGVAKVLDQLGAKLVFTYRKERSRKELEKLLEQLNQPEAHLYQIDVQSDEEVINGFEQIGKDVGNIDGVYHSIAFANMEDLRGRFSETSREGFLLAQDISSYSLTIVAHEAKKLMPEGGSIVATTYLGGEFAVQNYNVMGVAKASLEANVKYLALDLGPDNIRVNAISAGPIRTLSAKGVGGFNTILKEIEERAPLKRNVDQVEVGKTAAYLLSDLSSGVTGENIHVDSG

> <PDB ID(s) of Target Chain>
3GNS,3GNT,3GR6,4ALI,4ALJ,4ALK,4ALL,4ALM,4ALN,4BNF,4BNG,4BNH,4BNI,4BNJ,4BNK,4BNL,4BNM,4BNN,4CUZ,4CV0,4CV1,4D41,4D42,4D43,4D44,4D45,4FS3,4NZ9,6TBB,6TBC,6YUR

> <UniProt (SwissProt) Recommended Name of Target Chain>
Enoyl-[acyl-carrier-protein] reductase [NADPH] FabI

> <UniProt (SwissProt) Entry Name of Target Chain>
FABI_STAAR

> <UniProt (SwissProt) Primary ID of Target Chain>
Q6GI75

> <UniProt (SwissProt) Secondary ID(s) of Target Chain>


> <UniProt (SwissProt) Alternative ID(s) of Target Chain>


> <UniProt (TrEMBL) Submitted Name of Target Chain>


> <UniProt (TrEMBL) Entry Name of Target Chain>


> <UniProt (TrEMBL) Primary ID of Target Chain>


> <UniProt (TrEMBL) Secondary ID(s) of Target Chain>


> <UniProt (TrEMBL) Alternative ID(s) of Target Chain>


$$$$
BindingDB_50452508_mol_1

Vconf v2.0 Academic SN VC001-00000579
 32 33  0  0  0  0  0  0  0  0999 V2000
    3.9860   -2.3990    0.5690 C   0  0  0  0  0  0  0  0  0  0  0
    3.8990   -3.8060    0.5550 C   0  0  0  0  0  0  0  0  0  0  0
    2.6810   -4.3950    0.4970 N   0  0  0  0  0  0  0  0  0  0  0
    2.7710   -1.6840    0.5250 C   0  0  0  0  0  0  0  0  0  0  0
    1.5890   -2.3440    0.4710 N   0  0  0  0  0  0  0  0  0  0  0
    1.5320   -3.6950    0.4550 C   0  0  0  0  0  0  0  0  0  0  0
    5.1280   -1.7730    0.6200 C   0  0  0  0  0  0  0  0  0  0  0
    6.1350   -1.2220    0.6650 N   0  0  0  0  0  0  0  0  0  0  0
    2.7340   -0.3290    0.5380 O   0  0  0  0  0  0  0  0  0  0  0
    4.9840   -4.6140    0.5940 N   0  0  0  0  0  0  0  0  0  0  0
    8.1500   -5.5610   -0.2410 N   0  0  0  0  0  0  0  0  0  0  0
    7.0930   -6.3780   -0.4700 C   0  0  0  0  0  0  0  0  0  0  0
    4.8550   -6.0310    0.5550 C   0  0  0  0  0  0  0  0  0  0  0
    6.2120   -6.7410    0.6460 C   0  0  0  0  0  0  0  0  0  0  0
    0.2670   -4.4200    0.3960 C   0  0  0  0  0  0  0  0  0  0  0
    8.9940   -5.1500   -1.2220 C   0  0  0  0  0  0  0  0  0  0  0
    6.8490   -6.8390   -1.7760 C   0  0  0  0  0  0  0  0  0  0  0
    8.7850   -5.5770   -2.5420 C   0  0  0  0  0  0  0  0  0  0  0
    7.7040   -6.4290   -2.8130 C   0  0  0  0  0  0  0  0  0  0  0
    1.8270    0.0480    0.5060 H   0  0  0  0  0  0  0  0  0  0  0
    5.8700   -4.2190    0.6410 H   0  0  0  0  0  0  0  0  0  0  0
    4.2480   -6.3570    1.4000 H   0  0  0  0  0  0  0  0  0  0  0
    4.3490   -6.3220   -0.3680 H   0  0  0  0  0  0  0  0  0  0  0
    6.6810   -6.4670    1.5880 H   0  0  0  0  0  0  0  0  0  0  0
    6.0520   -7.8190    0.6480 H   0  0  0  0  0  0  0  0  0  0  0
   -0.5730   -3.7240    0.3510 H   0  0  0  0  0  0  0  0  0  0  0
    0.2600   -5.0540   -0.4950 H   0  0  0  0  0  0  0  0  0  0  0
    0.1720   -5.0450    1.2890 H   0  0  0  0  0  0  0  0  0  0  0
    9.7740   -4.5330   -0.9990 H   0  0  0  0  0  0  0  0  0  0  0
    6.0650   -7.4620   -1.9730 H   0  0  0  0  0  0  0  0  0  0  0
    9.4070   -5.2700   -3.2910 H   0  0  0  0  0  0  0  0  0  0  0
    7.5410   -6.7570   -3.7660 H   0  0  0  0  0  0  0  0  0  0  0
  1  2  1  0  0  0  0
  1  4  2  0  0  0  0
  1  7  1  0  0  0  0
  2  3  2  0  0  0  0
  2 10  1  0  0  0  0
  3  6  1  0  0  0  0
  4  5  1  0  0  0  0
  4  9  1  0  0  0  0
  5  6  2  0  0  0  0
  6 15  1  0  0  0  0
  7  8  3  0  0  0  0
  9 20  1  0  0  0  0
 10 13  1  0  0  0  0
 10 21  1  0  0  0  0
 11 12  1  0  0  0  0
 11 16  2  0  0  0  0
 12 14  1  0  0  0  0
 12 17  2  0  0  0  0
 13 14  1  0  0  0  0
 13 22  1  0  0  0  0
 13 23  1  0  0  0  0
 14 24  1  0  0  0  0
 14 25  1  0  0  0  0
 15 26  1  0  0  0  0
 15 27  1  0  0  0  0
 15 28  1  0  0  0  0
 16 18  1  0  0  0  0
 16 29  1  0  0  0  0
 17 19  1  0  0  0  0
 17 30  1  0  0  0  0
 18 19  2  0  0  0  0
 18 31  1  0  0  0  0
 19 32  1  0  0  0  0
M  END
> <From>
www.bindingDB.org

> <BindingDB Reactant_set_id>
51108791

> <Ligand InChI>
InChI=1S/C19H20ClNO2/c1-23-17-8-6-14(7-9-17)16-10-11-21(13-16)19(22)12-15-4-2-3-5-18(15)20/h2-9,16H,10-13H2,1H3

> <Ligand InChI Key>
UCTRIAJPESVHOK-UHFFFAOYSA-N

> <BindingDB MonomerID>
50452508

> <BindingDB Ligand Name>
CHEMBL4209393

> <Target Name>
Enoyl-[acyl-carrier-protein] reductase [NADPH] FabI [9-251]

> <Target Source Organism According to Curator or DataSource>
Staphylococcus aureus

> <Ki (nM)>
 4600

> <IC50 (nM)>


> <Kd (nM)>


> <EC50 (nM)>


> <kon (M-1-s-1)>


> <koff (s-1)>


> <pH>


> <Temp C>


> <Curation/DataSource>
ChEMBL

> <Article DOI>
10.1016/j.bmc.2017.11.018

> <BindingDB Entry DOI>
10.7270/Q2QF8WF7

> <PMID>
29162308

> <PubChem AID>


> <Patent Number>


> <Authors>
Kwon, J; Mistry, T; Ren, J; Johnson, ME; Mehboob, S

> <Institution>
Novalex Therapeutics

> <Link to Ligand in BindingDB>
http://www.bindingdb.org/bind/chemsearch/marvin/MolStructure.jsp?monomerid=50452508

> <Link to Ligand-Target Pair in BindingDB>
http://www.bindingdb.org/jsp/dbsearch/PrimarySearch_ki.jsp?energyterm=kJ/mole&tag=pol&polymerid=50004708&target=Enoyl-%5Bacyl-carrier-protein%5D+reductase+%5BNADPH%5D+FabI+%5B9-251%5D&column=ki&startPg=0&Increment=50&submit=Search

> <Link to Ligand-Target Pair in BindingDB>
http://www.bindingdb.org/jsp/dbsearch/PrimarySearch_ki.jsp?energyterm=kJ/mole&tag=r21&monomerid=50452508&enzyme=Enoyl-%5Bacyl-carrier-protein%5D+reductase+%5BNADPH%5D+FabI+%5B9-251%5D&column=ki&startPg=0&Increment=50&submit=Search

> <Ligand HET ID in PDB>


> <PDB ID(s) for Ligand-Target Complex>


> <PubChem CID of Ligand>
45555393

> <PubChem SID of Ligand>
433921364

> <ChEBI ID of Ligand>


> <ChEMBL ID of Ligand>


> <DrugBank ID of Ligand>


> <IUPHAR_GRAC ID of Ligand>


> <KEGG ID of Ligand>


> <ZINC ID of Ligand>


> <Number of Protein Chains in Target (bigger than 1 implies a multichain complex)>
1

> <BindingDB Target Chain Sequence>
YVIMGIANKRSIAFGVAKVLDQLGAKLVFTYRKERSRKELEKLLEQLNQPEAHLYQIDVQSDEEVINGFEQIGKDVGNIDGVYHSIAFANMEDLRGRFSETSREGFLLAQDISSYSLTIVAHEAKKLMPEGGSIVATTYLGGEFAVQNYNVMGVAKASLEANVKYLALDLGPDNIRVNAISAGPIRTLSAKGVGGFNTILKEIEERAPLKRNVDQVEVGKTAAYLLSDLSSGVTGENIHVDSG

> <PDB ID(s) of Target Chain>
3GNS,3GNT,3GR6,4ALI,4ALJ,4ALK,4ALL,4ALM,4ALN,4BNF,4BNG,4BNH,4BNI,4BNJ,4BNK,4BNL,4BNM,4BNN,4CUZ,4CV0,4CV1,4D41,4D42,4D43,4D44,4D45,4FS3,4NZ9,6TBB,6TBC,6YUR

> <UniProt (SwissProt) Recommended Name of Target Chain>
Enoyl-[acyl-carrier-protein] reductase [NADPH] FabI

> <UniProt (SwissProt) Entry Name of Target Chain>
FABI_STAAR

> <UniProt (SwissProt) Primary ID of Target Chain>
Q6GI75

> <UniProt (SwissProt) Secondary ID(s) of Target Chain>


> <UniProt (SwissProt) Alternative ID(s) of Target Chain>


> <UniProt (TrEMBL) Submitted Name of Target Chain>


> <UniProt (TrEMBL) Entry Name of Target Chain>


> <UniProt (TrEMBL) Primary ID of Target Chain>


> <UniProt (TrEMBL) Secondary ID(s) of Target Chain>


> <UniProt (TrEMBL) Alternative ID(s) of Target Chain>


$$$$
BindingDB_51108764_3D

Vconf v2.1
 38 40  0  0  0  0  0  0  0  0999 V2000
   33.9000   -6.7790    0.4640 C   0  0  2  0  0  0  0  0  0  0  0
   34.2700   -7.7800   -0.6420 C   0  0  0  0  0  0  0  0  0  0  0
   35.3920   -8.4840   -0.1280 N   0  0  0  0  0  0  0  0  0  0  0
   35.6330   -8.2470    1.2510 C   0  0  0  0  0  0  0  0  0  0  0
   34.3950   -7.4860    1.7320 C   0  0  0  0  0  0  0  0  0  0  0
   32.4710   -6.4080    0.4650 C   0  0  0  0  0  0  0  0  0  0  0
   31.6840   -6.6630    1.5440 N   0  0  0  0  0  0  0  0  0  0  0
   30.3670   -6.3440    1.5980 C   0  0  0  0  0  0  0  0  0  0  0
   29.7600   -5.7190    0.4980 C   0  0  0  0  0  0  0  0  0  0  0
   30.5390   -5.4360   -0.6350 C   0  0  0  0  0  0  0  0  0  0  0
   31.9010   -5.7770   -0.6570 C   0  0  0  0  0  0  0  0  0  0  0
   36.1780   -9.3100   -0.8700 C   0  0  0  0  0  0  0  0  0  0  0
   37.1640   -9.8590   -0.3290 O   0  0  0  0  0  0  0  0  0  0  0
   35.9360   -9.5920   -2.2990 C   0  0  0  0  0  0  0  0  0  0  0
   34.6980  -10.3780   -2.5430 C   0  0  0  0  0  0  0  0  0  0  0
   34.6090  -11.6600   -1.9540 C   0  0  0  0  0  0  0  0  0  0  0
   33.4730  -12.4650   -2.1330 C   0  0  0  0  0  0  0  0  0  0  0
   32.4070  -12.0030   -2.9180 C   0  0  0  0  0  0  0  0  0  0  0
   32.4820  -10.7410   -3.5260 C   0  0  0  0  0  0  0  0  0  0  0
   33.6190   -9.9260   -3.3510 C   0  0  0  0  0  0  0  0  0  0  0
   33.6160   -8.4280   -4.1470 Cl  0  0  0  0  0  0  0  0  0  0  0
   34.5000   -5.8770    0.3280 H   0  0  0  0  0  0  0  0  0  0  0
   33.4530   -8.4780   -0.8310 H   0  0  0  0  0  0  0  0  0  0  0
   34.5250   -7.2360   -1.5520 H   0  0  0  0  0  0  0  0  0  0  0
   35.7310   -9.1820    1.8060 H   0  0  0  0  0  0  0  0  0  0  0
   36.5310   -7.6390    1.3760 H   0  0  0  0  0  0  0  0  0  0  0
   34.6440   -6.7730    2.5190 H   0  0  0  0  0  0  0  0  0  0  0
   33.6550   -8.2040    2.0900 H   0  0  0  0  0  0  0  0  0  0  0
   29.8220   -6.5590    2.4330 H   0  0  0  0  0  0  0  0  0  0  0
   28.7700   -5.4750    0.5220 H   0  0  0  0  0  0  0  0  0  0  0
   30.1150   -4.9820   -1.4440 H   0  0  0  0  0  0  0  0  0  0  0
   32.4680   -5.5730   -1.4810 H   0  0  0  0  0  0  0  0  0  0  0
   35.9330   -8.6400   -2.8270 H   0  0  0  0  0  0  0  0  0  0  0
   36.7770  -10.1700   -2.6850 H   0  0  0  0  0  0  0  0  0  0  0
   35.3780  -12.0120   -1.3820 H   0  0  0  0  0  0  0  0  0  0  0
   33.4240  -13.3850   -1.6940 H   0  0  0  0  0  0  0  0  0  0  0
   31.5810  -12.5860   -3.0500 H   0  0  0  0  0  0  0  0  0  0  0
   31.6990  -10.4240   -4.1000 H   0  0  0  0  0  0  0  0  0  0  0
  1  2  1  0  0  0  0
  1  5  1  0  0  0  0
  1  6  1  0  0  0  0
  1 22  1  0  0  0  0
  2  3  1  0  0  0  0
  2 23  1  0  0  0  0
  2 24  1  0  0  0  0
  3  4  1  0  0  0  0
  3 12  1  0  0  0  0
  4  5  1  0  0  0  0
  4 25  1  0  0  0  0
  4 26  1  0  0  0  0
  5 27  1  0  0  0  0
  5 28  1  0  0  0  0
  6  7  2  0  0  0  0
  6 11  1  0  0  0  0
  7  8  1  0  0  0  0
  8  9  2  0  0  0  0
  8 29  1  0  0  0  0
  9 10  1  0  0  0  0
  9 30  1  0  0  0  0
 10 11  2  0  0  0  0
 10 31  1  0  0  0  0
 11 32  1  0  0  0  0
 12 13  2  0  0  0  0
 12 14  1  0  0  0  0
 14 15  1  0  0  0  0
 14 33  1  0  0  0  0
 14 34  1  0  0  0  0
 15 16  2  0  0  0  0
 15 20  1  0  0  0  0
 16 17  1  0  0  0  0
 16 35  1  0  0  0  0
 17 18  2  0  0  0  0
 17 36  1  0  0  0  0
 18 19  1  0  0  0  0
 18 37  1  0  0  0  0
 19 20  2  0  0  0  0
 19 38  1  0  0  0  0
 20 21  1  0  0  0  0
M  END
> <From>
www.bindingDB.org

> <BindingDB Reactant_set_id>
51108764

> <Ligand InChI>
InChI=1S/C17H17ClN2O/c18-15-6-2-1-5-13(15)11-17(21)20-10-8-14(12-20)16-7-3-4-9-19-16/h1-7,9,14H,8,10-12H2

> <Ligand InChI Key>
MUHWGUJZZRQHPQ-UHFFFAOYSA-N

> <BindingDB MonomerID>
50452481

> <BindingDB Ligand Name>
CHEMBL4216697

> <Target Name>
Enoyl-[acyl-carrier-protein] reductase [NADPH] FabI [9-251]

> <Target Source Organism According to Curator or DataSource>
Staphylococcus aureus

> <Ki (nM)>
 6800

> <IC50 (nM)>


> <Kd (nM)>


> <EC50 (nM)>


> <kon (M-1-s-1)>


> <koff (s-1)>


> <pH>


> <Temp C>


> <Curation/DataSource>
ChEMBL

> <Article DOI>
10.1016/j.bmc.2017.11.018

> <BindingDB Entry DOI>
10.7270/Q2QF8WF7

> <PMID>
29162308

> <PubChem AID>


> <Patent Number>


> <Authors>
Kwon, J; Mistry, T; Ren, J; Johnson, ME; Mehboob, S

> <Institution>
Novalex Therapeutics

> <Link to Ligand in BindingDB>
http://www.bindingdb.org/bind/chemsearch/marvin/MolStructure.jsp?monomerid=50452481

> <Link to Ligand-Target Pair in BindingDB>
http://www.bindingdb.org/jsp/dbsearch/PrimarySearch_ki.jsp?energyterm=kJ/mole&tag=pol&polymerid=50004708&target=Enoyl-%5Bacyl-carrier-protein%5D+reductase+%5BNADPH%5D+FabI+%5B9-251%5D&column=ki&startPg=0&Increment=50&submit=Search

> <Link to Ligand-Target Pair in BindingDB>
http://www.bindingdb.org/jsp/dbsearch/PrimarySearch_ki.jsp?energyterm=kJ/mole&tag=r21&monomerid=50452481&enzyme=Enoyl-%5Bacyl-carrier-protein%5D+reductase+%5BNADPH%5D+FabI+%5B9-251%5D&column=ki&startPg=0&Increment=50&submit=Search

> <Ligand HET ID in PDB>


> <PDB ID(s) for Ligand-Target Complex>


> <PubChem CID of Ligand>
122243171

> <PubChem SID of Ligand>
433921347

> <ChEBI ID of Ligand>


> <ChEMBL ID of Ligand>


> <DrugBank ID of Ligand>


> <IUPHAR_GRAC ID of Ligand>


> <KEGG ID of Ligand>


> <ZINC ID of Ligand>


> <Number of Protein Chains in Target (bigger than 1 implies a multichain complex)>
1

> <BindingDB Target Chain Sequence>
YVIMGIANKRSIAFGVAKVLDQLGAKLVFTYRKERSRKELEKLLEQLNQPEAHLYQIDVQSDEEVINGFEQIGKDVGNIDGVYHSIAFANMEDLRGRFSETSREGFLLAQDISSYSLTIVAHEAKKLMPEGGSIVATTYLGGEFAVQNYNVMGVAKASLEANVKYLALDLGPDNIRVNAISAGPIRTLSAKGVGGFNTILKEIEERAPLKRNVDQVEVGKTAAYLLSDLSSGVTGENIHVDSG

> <PDB ID(s) of Target Chain>
3GNS,3GNT,3GR6,4ALI,4ALJ,4ALK,4ALL,4ALM,4ALN,4BNF,4BNG,4BNH,4BNI,4BNJ,4BNK,4BNL,4BNM,4BNN,4CUZ,4CV0,4CV1,4D41,4D42,4D43,4D44,4D45,4FS3,4NZ9,6TBB,6TBC,6YUR

> <UniProt (SwissProt) Recommended Name of Target Chain>
Enoyl-[acyl-carrier-protein] reductase [NADPH] FabI

> <UniProt (SwissProt) Entry Name of Target Chain>
FABI_STAAR

> <UniProt (SwissProt) Primary ID of Target Chain>
Q6GI75

> <UniProt (SwissProt) Secondary ID(s) of Target Chain>


> <UniProt (SwissProt) Alternative ID(s) of Target Chain>


> <UniProt (TrEMBL) Submitted Name of Target Chain>


> <UniProt (TrEMBL) Entry Name of Target Chain>


> <UniProt (TrEMBL) Primary ID of Target Chain>


> <UniProt (TrEMBL) Secondary ID(s) of Target Chain>


> <UniProt (TrEMBL) Alternative ID(s) of Target Chain>


$$$$
BindingDB_51108771_3D

Vconf v2.1
 45 47  0  0  0  0  0  0  0  0999 V2000
   10.8570  -12.0450    2.2950 C   0  0  2  0  0  0  0  0  0  0  0
   11.5130  -13.2040    1.5270 C   0  0  0  0  0  0  0  0  0  0  0
   10.9280  -13.1520    0.2300 N   0  0  0  0  0  0  0  0  0  0  0
   10.1650  -11.9750   -0.0030 C   0  0  0  0  0  0  0  0  0  0  0
   10.4780  -11.0610    1.1840 C   0  0  0  0  0  0  0  0  0  0  0
   11.7270  -11.4560    3.3310 C   0  0  0  0  0  0  0  0  0  0  0
   11.0740  -14.1150   -0.7270 C   0  0  0  0  0  0  0  0  0  0  0
   10.4870  -13.9500   -1.8220 O   0  0  0  0  0  0  0  0  0  0  0
   11.8580  -15.2700   -0.5260 C   0  0  0  0  0  0  0  0  0  0  0
   12.0120  -16.2670   -1.4980 C   0  0  0  0  0  0  0  0  0  0  0
   12.7940  -17.4410   -1.3540 C   0  0  0  0  0  0  0  0  0  0  0
   13.5350  -17.7630   -0.1960 C   0  0  0  0  0  0  0  0  0  0  0
   14.2590  -18.9070   -0.1410 N   0  0  0  0  0  0  0  0  0  0  0
   14.3280  -19.8030   -1.1590 C   0  0  0  0  0  0  0  0  0  0  0
   13.6110  -19.5350   -2.3360 C   0  0  0  0  0  0  0  0  0  0  0
   12.8500  -18.3580   -2.4250 C   0  0  0  0  0  0  0  0  0  0  0
   15.0550  -20.9450   -1.0910 N   0  0  0  0  0  0  0  0  0  0  0
   15.8030  -21.3630   -0.0410 C   0  0  0  0  0  0  0  0  0  0  0
   16.5130  -22.6370   -0.1620 C   0  0  0  0  0  0  0  0  0  0  0
   15.9150  -20.7150    1.0240 O   0  0  0  0  0  0  0  0  0  0  0
   12.9390  -10.9490    2.9830 N   0  0  0  0  0  0  0  0  0  0  0
   13.7950  -10.3900    3.8740 C   0  0  0  0  0  0  0  0  0  0  0
   13.4370  -10.3180    5.2280 C   0  0  0  0  0  0  0  0  0  0  0
   12.1930  -10.8320    5.6270 C   0  0  0  0  0  0  0  0  0  0  0
   11.3290  -11.4060    4.6810 C   0  0  0  0  0  0  0  0  0  0  0
    9.9320  -12.4180    2.7400 H   0  0  0  0  0  0  0  0  0  0  0
   12.5950  -13.0760    1.4450 H   0  0  0  0  0  0  0  0  0  0  0
   11.2840  -14.1440    2.0320 H   0  0  0  0  0  0  0  0  0  0  0
    9.1020  -12.2180   -0.0300 H   0  0  0  0  0  0  0  0  0  0  0
   10.4620  -11.4840   -0.9320 H   0  0  0  0  0  0  0  0  0  0  0
    9.6130  -10.4570    1.4610 H   0  0  0  0  0  0  0  0  0  0  0
   11.3220  -10.4170    0.9290 H   0  0  0  0  0  0  0  0  0  0  0
   12.3340  -15.3730    0.3690 H   0  0  0  0  0  0  0  0  0  0  0
   11.5190  -16.1340   -2.3840 H   0  0  0  0  0  0  0  0  0  0  0
   13.5400  -17.1460    0.6160 H   0  0  0  0  0  0  0  0  0  0  0
   13.6390  -20.1860   -3.1210 H   0  0  0  0  0  0  0  0  0  0  0
   12.3330  -18.1760   -3.2870 H   0  0  0  0  0  0  0  0  0  0  0
   15.0390  -21.5220   -1.8690 H   0  0  0  0  0  0  0  0  0  0  0
   17.0660  -22.8460    0.7550 H   0  0  0  0  0  0  0  0  0  0  0
   15.7950  -23.4390   -0.3360 H   0  0  0  0  0  0  0  0  0  0  0
   17.2110  -22.5880   -0.9970 H   0  0  0  0  0  0  0  0  0  0  0
   14.6940  -10.0230    3.5590 H   0  0  0  0  0  0  0  0  0  0  0
   14.0690   -9.9000    5.9110 H   0  0  0  0  0  0  0  0  0  0  0
   11.9150  -10.7880    6.6080 H   0  0  0  0  0  0  0  0  0  0  0
   10.4250  -11.7790    4.9710 H   0  0  0  0  0  0  0  0  0  0  0
  1  2  1  0  0  0  0
  1  5  1  0  0  0  0
  1  6  1  0  0  0  0
  1 26  1  0  0  0  0
  2  3  1  0  0  0  0
  2 27  1  0  0  0  0
  2 28  1  0  0  0  0
  3  4  1  0  0  0  0
  3  7  1  0  0  0  0
  4  5  1  0  0  0  0
  4 29  1  0  0  0  0
  4 30  1  0  0  0  0
  5 31  1  0  0  0  0
  5 32  1  0  0  0  0
  6 21  2  0  0  0  0
  6 25  1  0  0  0  0
  7  8  2  0  0  0  0
  7  9  1  0  0  0  0
  9 10  2  0  0  0  0
  9 33  1  0  0  0  0
 10 11  1  0  0  0  0
 10 34  1  0  0  0  0
 11 12  2  0  0  0  0
 11 16  1  0  0  0  0
 12 13  1  0  0  0  0
 12 35  1  0  0  0  0
 13 14  2  0  0  0  0
 14 15  1  0  0  0  0
 14 17  1  0  0  0  0
 15 16  2  0  0  0  0
 15 36  1  0  0  0  0
 16 37  1  0  0  0  0
 17 18  1  0  0  0  0
 17 38  1  0  0  0  0
 18 19  1  0  0  0  0
 18 20  2  0  0  0  0
 19 39  1  0  0  0  0
 19 40  1  0  0  0  0
 19 41  1  0  0  0  0
 21 22  1  0  0  0  0
 22 23  2  0  0  0  0
 22 42  1  0  0  0  0
 23 24  1  0  0  0  0
 23 43  1  0  0  0  0
 24 25  2  0  0  0  0
 24 44  1  0  0  0  0
 25 45  1  0  0  0  0
M  END
> <From>
www.bindingDB.org

> <BindingDB Reactant_set_id>
51108771

> <Ligand InChI>
InChI=1S/C19H20N4O2/c1-14(24)22-18-7-5-15(12-21-18)6-8-19(25)23-11-9-16(13-23)17-4-2-3-10-20-17/h2-8,10,12,16H,9,11,13H2,1H3,(H,21,22,24)/b8-6+

> <Ligand InChI Key>
FTVYETAUGRLCJB-SOFGYWHQSA-N

> <BindingDB MonomerID>
50452498

> <BindingDB Ligand Name>
CHEMBL4217928

> <Target Name>
Enoyl-[acyl-carrier-protein] reductase [NADPH] FabI [9-251]

> <Target Source Organism According to Curator or DataSource>
Staphylococcus aureus

> <Ki (nM)>
 10500

> <IC50 (nM)>


> <Kd (nM)>


> <EC50 (nM)>


> <kon (M-1-s-1)>


> <koff (s-1)>


> <pH>


> <Temp C>


> <Curation/DataSource>
ChEMBL

> <Article DOI>
10.1016/j.bmc.2017.11.018

> <BindingDB Entry DOI>
10.7270/Q2QF8WF7

> <PMID>
29162308

> <PubChem AID>


> <Patent Number>


> <Authors>
Kwon, J; Mistry, T; Ren, J; Johnson, ME; Mehboob, S

> <Institution>
Novalex Therapeutics

> <Link to Ligand in BindingDB>
http://www.bindingdb.org/bind/chemsearch/marvin/MolStructure.jsp?monomerid=50452498

> <Link to Ligand-Target Pair in BindingDB>
http://www.bindingdb.org/jsp/dbsearch/PrimarySearch_ki.jsp?energyterm=kJ/mole&tag=pol&polymerid=50004708&target=Enoyl-%5Bacyl-carrier-protein%5D+reductase+%5BNADPH%5D+FabI+%5B9-251%5D&column=ki&startPg=0&Increment=50&submit=Search

> <Link to Ligand-Target Pair in BindingDB>
http://www.bindingdb.org/jsp/dbsearch/PrimarySearch_ki.jsp?energyterm=kJ/mole&tag=r21&monomerid=50452498&enzyme=Enoyl-%5Bacyl-carrier-protein%5D+reductase+%5BNADPH%5D+FabI+%5B9-251%5D&column=ki&startPg=0&Increment=50&submit=Search

> <Ligand HET ID in PDB>


> <PDB ID(s) for Ligand-Target Complex>


> <PubChem CID of Ligand>
122243064

> <PubChem SID of Ligand>
433921354

> <ChEBI ID of Ligand>


> <ChEMBL ID of Ligand>


> <DrugBank ID of Ligand>


> <IUPHAR_GRAC ID of Ligand>


> <KEGG ID of Ligand>


> <ZINC ID of Ligand>


> <Number of Protein Chains in Target (bigger than 1 implies a multichain complex)>
1

> <BindingDB Target Chain Sequence>
YVIMGIANKRSIAFGVAKVLDQLGAKLVFTYRKERSRKELEKLLEQLNQPEAHLYQIDVQSDEEVINGFEQIGKDVGNIDGVYHSIAFANMEDLRGRFSETSREGFLLAQDISSYSLTIVAHEAKKLMPEGGSIVATTYLGGEFAVQNYNVMGVAKASLEANVKYLALDLGPDNIRVNAISAGPIRTLSAKGVGGFNTILKEIEERAPLKRNVDQVEVGKTAAYLLSDLSSGVTGENIHVDSG

> <PDB ID(s) of Target Chain>
3GNS,3GNT,3GR6,4ALI,4ALJ,4ALK,4ALL,4ALM,4ALN,4BNF,4BNG,4BNH,4BNI,4BNJ,4BNK,4BNL,4BNM,4BNN,4CUZ,4CV0,4CV1,4D41,4D42,4D43,4D44,4D45,4FS3,4NZ9,6TBB,6TBC,6YUR

> <UniProt (SwissProt) Recommended Name of Target Chain>
Enoyl-[acyl-carrier-protein] reductase [NADPH] FabI

> <UniProt (SwissProt) Entry Name of Target Chain>
FABI_STAAR

> <UniProt (SwissProt) Primary ID of Target Chain>
Q6GI75

> <UniProt (SwissProt) Secondary ID(s) of Target Chain>


> <UniProt (SwissProt) Alternative ID(s) of Target Chain>


> <UniProt (TrEMBL) Submitted Name of Target Chain>


> <UniProt (TrEMBL) Entry Name of Target Chain>


> <UniProt (TrEMBL) Primary ID of Target Chain>


> <UniProt (TrEMBL) Secondary ID(s) of Target Chain>


> <UniProt (TrEMBL) Alternative ID(s) of Target Chain>


$$$$
BindingDB_50452513_mol_1

Vconf v2.0 Academic SN VC001-00000579
 24 24  0  0  0  0  0  0  0  0999 V2000
    4.0160   -2.3830    0.5680 C   0  0  0  0  0  0  0  0  0  0  0
    3.9280   -3.7960    0.5610 C   0  0  0  0  0  0  0  0  0  0  0
    2.7830   -1.6980    0.5180 C   0  0  0  0  0  0  0  0  0  0  0
    2.7180   -4.4050    0.5080 N   0  0  0  0  0  0  0  0  0  0  0
    5.2060   -1.7090    0.6180 N   0  3  0  0  0  0  0  0  0  0  0
    1.6080   -2.3640    0.4670 N   0  0  0  0  0  0  0  0  0  0  0
    1.5600   -3.7130    0.4610 C   0  0  0  0  0  0  0  0  0  0  0
    5.2760   -0.5080    0.6240 O   0  5  0  0  0  0  0  0  0  0  0
    2.7170   -0.3510    0.5200 O   0  0  0  0  0  0  0  0  0  0  0
    6.2670   -2.2730    0.6600 O   0  0  0  0  0  0  0  0  0  0  0
    5.0300   -4.5790    0.6050 N   0  0  0  0  0  0  0  0  0  0  0
    0.2810   -4.4190    0.4040 C   0  0  0  0  0  0  0  0  0  0  0
    4.9770   -5.9980    0.5990 C   0  0  0  0  0  0  0  0  0  0  0
    6.4000   -6.5630    0.6570 C   0  0  0  0  0  0  0  0  0  0  0
    1.8040    0.0040    0.4850 H   0  0  0  0  0  0  0  0  0  0  0
    5.9020   -4.1570    0.6440 H   0  0  0  0  0  0  0  0  0  0  0
   -0.5420   -3.7040    0.3730 H   0  0  0  0  0  0  0  0  0  0  0
    0.2500   -5.0420   -0.4900 H   0  0  0  0  0  0  0  0  0  0  0
    0.1760   -5.0500    1.2870 H   0  0  0  0  0  0  0  0  0  0  0
    4.4160   -6.3530    1.4650 H   0  0  0  0  0  0  0  0  0  0  0
    4.4910   -6.3480   -0.3130 H   0  0  0  0  0  0  0  0  0  0  0
    6.3570   -7.6530    0.6550 H   0  0  0  0  0  0  0  0  0  0  0
    6.9670   -6.2250   -0.2110 H   0  0  0  0  0  0  0  0  0  0  0
    6.8940   -6.2250    1.5680 H   0  0  0  0  0  0  0  0  0  0  0
  1  2  1  0  0  0  0
  1  3  2  0  0  0  0
  1  5  1  0  0  0  0
  2  4  2  0  0  0  0
  2 11  1  0  0  0  0
  3  6  1  0  0  0  0
  3  9  1  0  0  0  0
  4  7  1  0  0  0  0
  5  8  1  0  0  0  0
  5 10  2  0  0  0  0
  6  7  2  0  0  0  0
  7 12  1  0  0  0  0
  9 15  1  0  0  0  0
 11 13  1  0  0  0  0
 11 16  1  0  0  0  0
 12 17  1  0  0  0  0
 12 18  1  0  0  0  0
 12 19  1  0  0  0  0
 13 14  1  0  0  0  0
 13 20  1  0  0  0  0
 13 21  1  0  0  0  0
 14 22  1  0  0  0  0
 14 23  1  0  0  0  0
 14 24  1  0  0  0  0
M  CHG  1   5   1
M  CHG  1   8  -1
M  END
> <From>
www.bindingDB.org

> <BindingDB Reactant_set_id>
51108795

> <Ligand InChI>
InChI=1S/C21H24N2O3/c1-15(24)22-18-9-7-16(8-10-18)13-21(25)23-12-11-17(14-23)19-5-3-4-6-20(19)26-2/h3-10,17H,11-14H2,1-2H3,(H,22,24)

> <Ligand InChI Key>
AJYAUJLZPYUXID-UHFFFAOYSA-N

> <BindingDB MonomerID>
50452513

> <BindingDB Ligand Name>
CHEMBL4213468

> <Target Name>
Enoyl-[acyl-carrier-protein] reductase [NADPH] FabI [9-251]

> <Target Source Organism According to Curator or DataSource>
Staphylococcus aureus

> <Ki (nM)>
>37100

> <IC50 (nM)>


> <Kd (nM)>


> <EC50 (nM)>


> <kon (M-1-s-1)>


> <koff (s-1)>


> <pH>


> <Temp C>


> <Curation/DataSource>
ChEMBL

> <Article DOI>
10.1016/j.bmc.2017.11.018

> <BindingDB Entry DOI>
10.7270/Q2QF8WF7

> <PMID>
29162308

> <PubChem AID>


> <Patent Number>


> <Authors>
Kwon, J; Mistry, T; Ren, J; Johnson, ME; Mehboob, S

> <Institution>
Novalex Therapeutics

> <Link to Ligand in BindingDB>
http://www.bindingdb.org/bind/chemsearch/marvin/MolStructure.jsp?monomerid=50452513

> <Link to Ligand-Target Pair in BindingDB>
http://www.bindingdb.org/jsp/dbsearch/PrimarySearch_ki.jsp?energyterm=kJ/mole&tag=pol&polymerid=50004708&target=Enoyl-%5Bacyl-carrier-protein%5D+reductase+%5BNADPH%5D+FabI+%5B9-251%5D&column=ki&startPg=0&Increment=50&submit=Search

> <Link to Ligand-Target Pair in BindingDB>
http://www.bindingdb.org/jsp/dbsearch/PrimarySearch_ki.jsp?energyterm=kJ/mole&tag=r21&monomerid=50452513&enzyme=Enoyl-%5Bacyl-carrier-protein%5D+reductase+%5BNADPH%5D+FabI+%5B9-251%5D&column=ki&startPg=0&Increment=50&submit=Search

> <Ligand HET ID in PDB>


> <PDB ID(s) for Ligand-Target Complex>


> <PubChem CID of Ligand>
122243072

> <PubChem SID of Ligand>
433921369

> <ChEBI ID of Ligand>


> <ChEMBL ID of Ligand>


> <DrugBank ID of Ligand>


> <IUPHAR_GRAC ID of Ligand>


> <KEGG ID of Ligand>


> <ZINC ID of Ligand>


> <Number of Protein Chains in Target (bigger than 1 implies a multichain complex)>
1

> <BindingDB Target Chain Sequence>
YVIMGIANKRSIAFGVAKVLDQLGAKLVFTYRKERSRKELEKLLEQLNQPEAHLYQIDVQSDEEVINGFEQIGKDVGNIDGVYHSIAFANMEDLRGRFSETSREGFLLAQDISSYSLTIVAHEAKKLMPEGGSIVATTYLGGEFAVQNYNVMGVAKASLEANVKYLALDLGPDNIRVNAISAGPIRTLSAKGVGGFNTILKEIEERAPLKRNVDQVEVGKTAAYLLSDLSSGVTGENIHVDSG

> <PDB ID(s) of Target Chain>
3GNS,3GNT,3GR6,4ALI,4ALJ,4ALK,4ALL,4ALM,4ALN,4BNF,4BNG,4BNH,4BNI,4BNJ,4BNK,4BNL,4BNM,4BNN,4CUZ,4CV0,4CV1,4D41,4D42,4D43,4D44,4D45,4FS3,4NZ9,6TBB,6TBC,6YUR

> <UniProt (SwissProt) Recommended Name of Target Chain>
Enoyl-[acyl-carrier-protein] reductase [NADPH] FabI

> <UniProt (SwissProt) Entry Name of Target Chain>
FABI_STAAR

> <UniProt (SwissProt) Primary ID of Target Chain>
Q6GI75

> <UniProt (SwissProt) Secondary ID(s) of Target Chain>


> <UniProt (SwissProt) Alternative ID(s) of Target Chain>


> <UniProt (TrEMBL) Submitted Name of Target Chain>


> <UniProt (TrEMBL) Entry Name of Target Chain>


> <UniProt (TrEMBL) Primary ID of Target Chain>


> <UniProt (TrEMBL) Secondary ID(s) of Target Chain>


> <UniProt (TrEMBL) Alternative ID(s) of Target Chain>


$$$$
BindingDB_50452514_mol_1

Vconf v2.0 Academic SN VC001-00000579
 35 36  0  0  0  0  0  0  0  0999 V2000
    3.1180   -3.5990    0.5840 N   0  0  0  0  0  0  0  0  0  0  0
    4.3150   -2.9790    0.5550 C   0  0  0  0  0  0  0  0  0  0  0
    4.3700   -1.5700    0.5710 C   0  0  0  0  0  0  0  0  0  0  0
    1.9720   -1.5840    0.6430 N   0  0  0  0  0  0  0  0  0  0  0
    1.9460   -2.9360    0.6280 C   0  0  0  0  0  0  0  0  0  0  0
    3.1360   -0.8950    0.6170 C   0  0  0  0  0  0  0  0  0  0  0
    5.4890   -0.9160    0.5450 C   0  0  0  0  0  0  0  0  0  0  0
    5.3990   -3.7910    0.5240 N   0  0  0  0  0  0  0  0  0  0  0
    6.4790   -0.3370    0.5220 N   0  0  0  0  0  0  0  0  0  0  0
    3.0550    0.4520    0.6380 O   0  0  0  0  0  0  0  0  0  0  0
    8.0610   -7.3970    1.6390 N   0  0  0  0  0  0  0  0  0  0  0
    0.7070   -3.7280    0.6600 C   0  0  0  0  0  0  0  0  0  0  0
    6.5280   -5.9210    0.5460 C   0  0  0  0  0  0  0  0  0  0  0
    5.2430   -5.2160    0.5050 C   0  0  0  0  0  0  0  0  0  0  0
    6.8690   -6.7470    1.6320 C   0  0  0  0  0  0  0  0  0  0  0
    8.9610   -7.2960    0.6290 C   0  0  0  0  0  0  0  0  0  0  0
    7.4330   -5.8220   -0.5230 C   0  0  0  0  0  0  0  0  0  0  0
    0.6200   -4.6180   -0.5980 C   0  0  0  0  0  0  0  0  0  0  0
    0.6730   -4.6050    1.9290 C   0  0  0  0  0  0  0  0  0  0  0
    8.6600   -6.5040   -0.4870 C   0  0  0  0  0  0  0  0  0  0  0
    6.2860   -3.4060    0.5260 H   0  0  0  0  0  0  0  0  0  0  0
    2.1360    0.7790    0.6740 H   0  0  0  0  0  0  0  0  0  0  0
   -0.1550   -3.0610    0.6750 H   0  0  0  0  0  0  0  0  0  0  0
    4.6360   -5.5090    1.3680 H   0  0  0  0  0  0  0  0  0  0  0
    4.7190   -5.5050   -0.4080 H   0  0  0  0  0  0  0  0  0  0  0
    6.2260   -6.8640    2.4220 H   0  0  0  0  0  0  0  0  0  0  0
    9.8490   -7.7910    0.6860 H   0  0  0  0  0  0  0  0  0  0  0
    7.1940   -5.2490   -1.3340 H   0  0  0  0  0  0  0  0  0  0  0
   -0.3260   -5.1540   -0.5980 H   0  0  0  0  0  0  0  0  0  0  0
    0.6780   -4.0080   -1.5010 H   0  0  0  0  0  0  0  0  0  0  0
    1.4370   -5.3440   -0.6140 H   0  0  0  0  0  0  0  0  0  0  0
   -0.2470   -5.1850    1.9460 H   0  0  0  0  0  0  0  0  0  0  0
    1.5220   -5.2930    1.9490 H   0  0  0  0  0  0  0  0  0  0  0
    0.7100   -3.9810    2.8230 H   0  0  0  0  0  0  0  0  0  0  0
    9.3190   -6.4180   -1.2550 H   0  0  0  0  0  0  0  0  0  0  0
  1  2  2  0  0  0  0
  1  5  1  0  0  0  0
  2  3  1  0  0  0  0
  2  8  1  0  0  0  0
  3  6  2  0  0  0  0
  3  7  1  0  0  0  0
  4  5  2  0  0  0  0
  4  6  1  0  0  0  0
  5 12  1  0  0  0  0
  6 10  1  0  0  0  0
  7  9  3  0  0  0  0
  8 14  1  0  0  0  0
  8 21  1  0  0  0  0
 10 22  1  0  0  0  0
 11 15  1  0  0  0  0
 11 16  2  0  0  0  0
 12 18  1  0  0  0  0
 12 19  1  0  0  0  0
 12 23  1  0  0  0  0
 13 14  1  0  0  0  0
 13 15  2  0  0  0  0
 13 17  1  0  0  0  0
 14 24  1  0  0  0  0
 14 25  1  0  0  0  0
 15 26  1  0  0  0  0
 16 20  1  0  0  0  0
 16 27  1  0  0  0  0
 17 20  2  0  0  0  0
 17 28  1  0  0  0  0
 18 29  1  0  0  0  0
 18 30  1  0  0  0  0
 18 31  1  0  0  0  0
 19 32  1  0  0  0  0
 19 33  1  0  0  0  0
 19 34  1  0  0  0  0
 20 35  1  0  0  0  0
M  END
> <From>
www.bindingDB.org

> <BindingDB Reactant_set_id>
51108796

> <Ligand InChI>
InChI=1S/C21H24N2O3/c1-15(24)22-19-7-3-16(4-8-19)13-21(25)23-12-11-18(14-23)17-5-9-20(26-2)10-6-17/h3-10,18H,11-14H2,1-2H3,(H,22,24)

> <Ligand InChI Key>
PLKCGWJGDQCENY-UHFFFAOYSA-N

> <BindingDB MonomerID>
50452514

> <BindingDB Ligand Name>
CHEMBL4217867

> <Target Name>
Enoyl-[acyl-carrier-protein] reductase [NADPH] FabI [9-251]

> <Target Source Organism According to Curator or DataSource>
Staphylococcus aureus

> <Ki (nM)>
>37100

> <IC50 (nM)>


> <Kd (nM)>


> <EC50 (nM)>


> <kon (M-1-s-1)>


> <koff (s-1)>


> <pH>


> <Temp C>


> <Curation/DataSource>
ChEMBL

> <Article DOI>
10.1016/j.bmc.2017.11.018

> <BindingDB Entry DOI>
10.7270/Q2QF8WF7

> <PMID>
29162308

> <PubChem AID>


> <Patent Number>


> <Authors>
Kwon, J; Mistry, T; Ren, J; Johnson, ME; Mehboob, S

> <Institution>
Novalex Therapeutics

> <Link to Ligand in BindingDB>
http://www.bindingdb.org/bind/chemsearch/marvin/MolStructure.jsp?monomerid=50452514

> <Link to Ligand-Target Pair in BindingDB>
http://www.bindingdb.org/jsp/dbsearch/PrimarySearch_ki.jsp?energyterm=kJ/mole&tag=pol&polymerid=50004708&target=Enoyl-%5Bacyl-carrier-protein%5D+reductase+%5BNADPH%5D+FabI+%5B9-251%5D&column=ki&startPg=0&Increment=50&submit=Search

> <Link to Ligand-Target Pair in BindingDB>
http://www.bindingdb.org/jsp/dbsearch/PrimarySearch_ki.jsp?energyterm=kJ/mole&tag=r21&monomerid=50452514&enzyme=Enoyl-%5Bacyl-carrier-protein%5D+reductase+%5BNADPH%5D+FabI+%5B9-251%5D&column=ki&startPg=0&Increment=50&submit=Search

> <Ligand HET ID in PDB>


> <PDB ID(s) for Ligand-Target Complex>


> <PubChem CID of Ligand>
122243074

> <PubChem SID of Ligand>
433921370

> <ChEBI ID of Ligand>


> <ChEMBL ID of Ligand>


> <DrugBank ID of Ligand>


> <IUPHAR_GRAC ID of Ligand>


> <KEGG ID of Ligand>


> <ZINC ID of Ligand>


> <Number of Protein Chains in Target (bigger than 1 implies a multichain complex)>
1

> <BindingDB Target Chain Sequence>
YVIMGIANKRSIAFGVAKVLDQLGAKLVFTYRKERSRKELEKLLEQLNQPEAHLYQIDVQSDEEVINGFEQIGKDVGNIDGVYHSIAFANMEDLRGRFSETSREGFLLAQDISSYSLTIVAHEAKKLMPEGGSIVATTYLGGEFAVQNYNVMGVAKASLEANVKYLALDLGPDNIRVNAISAGPIRTLSAKGVGGFNTILKEIEERAPLKRNVDQVEVGKTAAYLLSDLSSGVTGENIHVDSG

> <PDB ID(s) of Target Chain>
3GNS,3GNT,3GR6,4ALI,4ALJ,4ALK,4ALL,4ALM,4ALN,4BNF,4BNG,4BNH,4BNI,4BNJ,4BNK,4BNL,4BNM,4BNN,4CUZ,4CV0,4CV1,4D41,4D42,4D43,4D44,4D45,4FS3,4NZ9,6TBB,6TBC,6YUR

> <UniProt (SwissProt) Recommended Name of Target Chain>
Enoyl-[acyl-carrier-protein] reductase [NADPH] FabI

> <UniProt (SwissProt) Entry Name of Target Chain>
FABI_STAAR

> <UniProt (SwissProt) Primary ID of Target Chain>
Q6GI75

> <UniProt (SwissProt) Secondary ID(s) of Target Chain>


> <UniProt (SwissProt) Alternative ID(s) of Target Chain>


> <UniProt (TrEMBL) Submitted Name of Target Chain>


> <UniProt (TrEMBL) Entry Name of Target Chain>


> <UniProt (TrEMBL) Primary ID of Target Chain>


> <UniProt (TrEMBL) Secondary ID(s) of Target Chain>


> <UniProt (TrEMBL) Alternative ID(s) of Target Chain>


$$$$
BindingDB_51108797_3D

Vconf v2.1
 42 44  0  0  0  0  0  0  0  0999 V2000
   21.9140  -23.0750    0.0240 C   0  0  2  0  0  0  0  0  0  0  0
   22.4460  -24.5150    0.0470 C   0  0  0  0  0  0  0  0  0  0  0
   23.8230  -24.3750    0.3660 N   0  0  0  0  0  0  0  0  0  0  0
   24.1810  -23.0750    0.8140 C   0  0  0  0  0  0  0  0  0  0  0
   22.8500  -22.3400    0.9900 C   0  0  0  0  0  0  0  0  0  0  0
   20.4930  -22.9650    0.3800 C   0  0  0  0  0  0  0  0  0  0  0
   24.7380  -25.3780    0.2560 C   0  0  0  0  0  0  0  0  0  0  0
   25.9350  -25.1440    0.5380 O   0  0  0  0  0  0  0  0  0  0  0
   24.3950  -26.7360   -0.2030 C   0  0  0  0  0  0  0  0  0  0  0
   23.5370  -27.4710    0.7510 C   0  0  0  0  0  0  0  0  0  0  0
   22.2560  -27.9150    0.3670 C   0  0  0  0  0  0  0  0  0  0  0
   21.4400  -28.6120    1.2740 C   0  0  0  0  0  0  0  0  0  0  0
   21.8900  -28.8780    2.5850 C   0  0  0  0  0  0  0  0  0  0  0
   23.1810  -28.4600    2.9580 C   0  0  0  0  0  0  0  0  0  0  0
   23.9970  -27.7620    2.0520 C   0  0  0  0  0  0  0  0  0  0  0
   20.0060  -23.4040    1.5520 N   0  0  0  0  0  0  0  0  0  0  0
   18.6870  -23.2020    1.6480 C   0  0  0  0  0  0  0  0  0  0  0
   18.1550  -22.5920    0.5230 C   0  0  0  0  0  0  0  0  0  0  0
   19.3330  -22.2620   -0.6990 S   0  0  0  0  0  0  0  0  0  0  0
   21.1590  -29.5610    3.5060 N   0  0  0  0  0  0  0  0  0  0  0
   19.8150  -29.5030    3.6810 C   0  0  0  0  0  0  0  0  0  0  0
   19.0680  -28.7770    2.9870 O   0  0  0  0  0  0  0  0  0  0  0
   19.2180  -30.3070    4.7470 C   0  0  0  0  0  0  0  0  0  0  0
   22.0630  -22.6660   -0.9760 H   0  0  0  0  0  0  0  0  0  0  0
   21.9500  -25.1080    0.8180 H   0  0  0  0  0  0  0  0  0  0  0
   22.3020  -24.9740   -0.9330 H   0  0  0  0  0  0  0  0  0  0  0
   24.7110  -23.1140    1.7670 H   0  0  0  0  0  0  0  0  0  0  0
   24.7970  -22.5770    0.0630 H   0  0  0  0  0  0  0  0  0  0  0
   22.9410  -21.2840    0.7350 H   0  0  0  0  0  0  0  0  0  0  0
   22.5110  -22.4530    2.0220 H   0  0  0  0  0  0  0  0  0  0  0
   23.9110  -26.6550   -1.1780 H   0  0  0  0  0  0  0  0  0  0  0
   25.3160  -27.3060   -0.3390 H   0  0  0  0  0  0  0  0  0  0  0
   21.9110  -27.7270   -0.5750 H   0  0  0  0  0  0  0  0  0  0  0
   20.5180  -28.9280    0.9720 H   0  0  0  0  0  0  0  0  0  0  0
   23.5310  -28.6590    3.8960 H   0  0  0  0  0  0  0  0  0  0  0
   24.9280  -27.4610    2.3440 H   0  0  0  0  0  0  0  0  0  0  0
   18.1330  -23.4670    2.4630 H   0  0  0  0  0  0  0  0  0  0  0
   17.1660  -22.3620    0.4240 H   0  0  0  0  0  0  0  0  0  0  0
   21.6530  -30.1130    4.1310 H   0  0  0  0  0  0  0  0  0  0  0
   18.1380  -30.1540    4.7710 H   0  0  0  0  0  0  0  0  0  0  0
   19.4260  -31.3620    4.5670 H   0  0  0  0  0  0  0  0  0  0  0
   19.6430  -30.0130    5.7070 H   0  0  0  0  0  0  0  0  0  0  0
  1  2  1  0  0  0  0
  1  5  1  0  0  0  0
  1  6  1  0  0  0  0
  1 24  1  0  0  0  0
  2  3  1  0  0  0  0
  2 25  1  0  0  0  0
  2 26  1  0  0  0  0
  3  4  1  0  0  0  0
  3  7  1  0  0  0  0
  4  5  1  0  0  0  0
  4 27  1  0  0  0  0
  4 28  1  0  0  0  0
  5 29  1  0  0  0  0
  5 30  1  0  0  0  0
  6 16  2  0  0  0  0
  6 19  1  0  0  0  0
  7  8  2  0  0  0  0
  7  9  1  0  0  0  0
  9 10  1  0  0  0  0
  9 31  1  0  0  0  0
  9 32  1  0  0  0  0
 10 11  2  0  0  0  0
 10 15  1  0  0  0  0
 11 12  1  0  0  0  0
 11 33  1  0  0  0  0
 12 13  2  0  0  0  0
 12 34  1  0  0  0  0
 13 14  1  0  0  0  0
 13 20  1  0  0  0  0
 14 15  2  0  0  0  0
 14 35  1  0  0  0  0
 15 36  1  0  0  0  0
 16 17  1  0  0  0  0
 17 18  2  0  0  0  0
 17 37  1  0  0  0  0
 18 19  1  0  0  0  0
 18 38  1  0  0  0  0
 20 21  1  0  0  0  0
 20 39  1  0  0  0  0
 21 22  2  0  0  0  0
 21 23  1  0  0  0  0
 23 40  1  0  0  0  0
 23 41  1  0  0  0  0
 23 42  1  0  0  0  0
M  END
> <From>
www.bindingDB.org

> <BindingDB Reactant_set_id>
51108797

> <Ligand InChI>
InChI=1S/C17H19N3O2S/c1-12(21)19-15-4-2-13(3-5-15)10-16(22)20-8-6-14(11-20)17-18-7-9-23-17/h2-5,7,9,14H,6,8,10-11H2,1H3,(H,19,21)

> <Ligand InChI Key>
XDTZVOPGBUXXID-UHFFFAOYSA-N

> <BindingDB MonomerID>
50452480

> <BindingDB Ligand Name>
CHEMBL4206150

> <Target Name>
Enoyl-[acyl-carrier-protein] reductase [NADPH] FabI [9-251]

> <Target Source Organism According to Curator or DataSource>
Staphylococcus aureus

> <Ki (nM)>
>37100

> <IC50 (nM)>


> <Kd (nM)>


> <EC50 (nM)>


> <kon (M-1-s-1)>


> <koff (s-1)>


> <pH>


> <Temp C>


> <Curation/DataSource>
ChEMBL

> <Article DOI>
10.1016/j.bmc.2017.11.018

> <BindingDB Entry DOI>
10.7270/Q2QF8WF7

> <PMID>
29162308

> <PubChem AID>


> <Patent Number>


> <Authors>
Kwon, J; Mistry, T; Ren, J; Johnson, ME; Mehboob, S

> <Institution>
Novalex Therapeutics

> <Link to Ligand in BindingDB>
http://www.bindingdb.org/bind/chemsearch/marvin/MolStructure.jsp?monomerid=50452480

> <Link to Ligand-Target Pair in BindingDB>
http://www.bindingdb.org/jsp/dbsearch/PrimarySearch_ki.jsp?energyterm=kJ/mole&tag=pol&polymerid=50004708&target=Enoyl-%5Bacyl-carrier-protein%5D+reductase+%5BNADPH%5D+FabI+%5B9-251%5D&column=ki&startPg=0&Increment=50&submit=Search

> <Link to Ligand-Target Pair in BindingDB>
http://www.bindingdb.org/jsp/dbsearch/PrimarySearch_ki.jsp?energyterm=kJ/mole&tag=r21&monomerid=50452480&enzyme=Enoyl-%5Bacyl-carrier-protein%5D+reductase+%5BNADPH%5D+FabI+%5B9-251%5D&column=ki&startPg=0&Increment=50&submit=Search

> <Ligand HET ID in PDB>


> <PDB ID(s) for Ligand-Target Complex>


> <PubChem CID of Ligand>
122243076

> <PubChem SID of Ligand>
433921346

> <ChEBI ID of Ligand>


> <ChEMBL ID of Ligand>


> <DrugBank ID of Ligand>


> <IUPHAR_GRAC ID of Ligand>


> <KEGG ID of Ligand>


> <ZINC ID of Ligand>


> <Number of Protein Chains in Target (bigger than 1 implies a multichain complex)>
1

> <BindingDB Target Chain Sequence>
YVIMGIANKRSIAFGVAKVLDQLGAKLVFTYRKERSRKELEKLLEQLNQPEAHLYQIDVQSDEEVINGFEQIGKDVGNIDGVYHSIAFANMEDLRGRFSETSREGFLLAQDISSYSLTIVAHEAKKLMPEGGSIVATTYLGGEFAVQNYNVMGVAKASLEANVKYLALDLGPDNIRVNAISAGPIRTLSAKGVGGFNTILKEIEERAPLKRNVDQVEVGKTAAYLLSDLSSGVTGENIHVDSG

> <PDB ID(s) of Target Chain>
3GNS,3GNT,3GR6,4ALI,4ALJ,4ALK,4ALL,4ALM,4ALN,4BNF,4BNG,4BNH,4BNI,4BNJ,4BNK,4BNL,4BNM,4BNN,4CUZ,4CV0,4CV1,4D41,4D42,4D43,4D44,4D45,4FS3,4NZ9,6TBB,6TBC,6YUR

> <UniProt (SwissProt) Recommended Name of Target Chain>
Enoyl-[acyl-carrier-protein] reductase [NADPH] FabI

> <UniProt (SwissProt) Entry Name of Target Chain>
FABI_STAAR

> <UniProt (SwissProt) Primary ID of Target Chain>
Q6GI75

> <UniProt (SwissProt) Secondary ID(s) of Target Chain>


> <UniProt (SwissProt) Alternative ID(s) of Target Chain>


> <UniProt (TrEMBL) Submitted Name of Target Chain>


> <UniProt (TrEMBL) Entry Name of Target Chain>


> <UniProt (TrEMBL) Primary ID of Target Chain>


> <UniProt (TrEMBL) Secondary ID(s) of Target Chain>


> <UniProt (TrEMBL) Alternative ID(s) of Target Chain>


$$$$
BindingDB_50452504_mol_1

Vconf v2.0 Academic SN VC001-00000579
 32 33  0  0  0  0  0  0  0  0999 V2000
    3.8620   -2.8000    0.5990 C   0  0  0  0  0  0  0  0  0  0  0
    3.9530   -1.3940    0.5880 C   0  0  0  0  0  0  0  0  0  0  0
    2.6430   -3.3840    0.6520 N   0  0  0  0  0  0  0  0  0  0  0
    2.7430   -0.6750    0.6270 C   0  0  0  0  0  0  0  0  0  0  0
    1.5560   -1.3280    0.6670 N   0  0  0  0  0  0  0  0  0  0  0
    1.4920   -2.6800    0.6800 C   0  0  0  0  0  0  0  0  0  0  0
    5.1020   -0.7860    0.5480 C   0  0  0  0  0  0  0  0  0  0  0
    4.9530   -3.6060    0.5510 N   0  0  0  0  0  0  0  0  0  0  0
    6.1200   -0.2590    0.5120 N   0  0  0  0  0  0  0  0  0  0  0
    2.7210    0.6780    0.6240 O   0  0  0  0  0  0  0  0  0  0  0
    7.7510   -7.2200    1.3550 N   0  0  0  0  0  0  0  0  0  0  0
    6.1370   -5.6970    0.4520 C   0  0  0  0  0  0  0  0  0  0  0
    4.8320   -5.0220    0.5520 C   0  0  0  0  0  0  0  0  0  0  0
    0.2150   -3.4020    0.6980 C   0  0  0  0  0  0  0  0  0  0  0
    6.5880   -6.5350    1.4890 C   0  0  0  0  0  0  0  0  0  0  0
    8.5270   -7.1340    0.2470 C   0  0  0  0  0  0  0  0  0  0  0
    6.9380   -5.5760   -0.7000 C   0  0  0  0  0  0  0  0  0  0  0
    0.1380   -4.4100   -0.4630 C   0  0  0  0  0  0  0  0  0  0  0
    8.1360   -6.3020   -0.8130 C   0  0  0  0  0  0  0  0  0  0  0
    5.8360   -3.2080    0.5220 H   0  0  0  0  0  0  0  0  0  0  0
    1.8230    1.0690    0.6440 H   0  0  0  0  0  0  0  0  0  0  0
    4.3260   -5.3180    1.4740 H   0  0  0  0  0  0  0  0  0  0  0
    4.2140   -5.3380   -0.2920 H   0  0  0  0  0  0  0  0  0  0  0
    0.1270   -3.9400    1.6430 H   0  0  0  0  0  0  0  0  0  0  0
   -0.6110   -2.6960    0.6180 H   0  0  0  0  0  0  0  0  0  0  0
    6.0340   -6.6410    2.3390 H   0  0  0  0  0  0  0  0  0  0  0
    9.3920   -7.6720    0.1870 H   0  0  0  0  0  0  0  0  0  0  0
    6.6430   -4.9700   -1.4670 H   0  0  0  0  0  0  0  0  0  0  0
   -0.8190   -4.9310   -0.4260 H   0  0  0  0  0  0  0  0  0  0  0
    0.2280   -3.8890   -1.4170 H   0  0  0  0  0  0  0  0  0  0  0
    0.9420   -5.1450   -0.3790 H   0  0  0  0  0  0  0  0  0  0  0
    8.7120   -6.2280   -1.6530 H   0  0  0  0  0  0  0  0  0  0  0
  1  2  1  0  0  0  0
  1  3  2  0  0  0  0
  1  8  1  0  0  0  0
  2  4  2  0  0  0  0
  2  7  1  0  0  0  0
  3  6  1  0  0  0  0
  4  5  1  0  0  0  0
  4 10  1  0  0  0  0
  5  6  2  0  0  0  0
  6 14  1  0  0  0  0
  7  9  3  0  0  0  0
  8 13  1  0  0  0  0
  8 20  1  0  0  0  0
 10 21  1  0  0  0  0
 11 15  1  0  0  0  0
 11 16  2  0  0  0  0
 12 13  1  0  0  0  0
 12 15  2  0  0  0  0
 12 17  1  0  0  0  0
 13 22  1  0  0  0  0
 13 23  1  0  0  0  0
 14 18  1  0  0  0  0
 14 24  1  0  0  0  0
 14 25  1  0  0  0  0
 15 26  1  0  0  0  0
 16 19  1  0  0  0  0
 16 27  1  0  0  0  0
 17 19  2  0  0  0  0
 17 28  1  0  0  0  0
 18 29  1  0  0  0  0
 18 30  1  0  0  0  0
 18 31  1  0  0  0  0
 19 32  1  0  0  0  0
M  END
> <From>
www.bindingDB.org

> <BindingDB Reactant_set_id>
51108806

> <Ligand InChI>
InChI=1S/C21H22N2O4/c1-14(24)22-18-5-2-15(3-6-18)10-21(25)23-9-8-17(12-23)16-4-7-19-20(11-16)27-13-26-19/h2-7,11,17H,8-10,12-13H2,1H3,(H,22,24)

> <Ligand InChI Key>
PFNFWIPUTVTNTL-UHFFFAOYSA-N

> <BindingDB MonomerID>
50452504

> <BindingDB Ligand Name>
CHEMBL4218400

> <Target Name>
Enoyl-[acyl-carrier-protein] reductase [NADPH] FabI [9-251]

> <Target Source Organism According to Curator or DataSource>
Staphylococcus aureus

> <Ki (nM)>
>37100

> <IC50 (nM)>


> <Kd (nM)>


> <EC50 (nM)>


> <kon (M-1-s-1)>


> <koff (s-1)>


> <pH>


> <Temp C>


> <Curation/DataSource>
ChEMBL

> <Article DOI>
10.1016/j.bmc.2017.11.018

> <BindingDB Entry DOI>
10.7270/Q2QF8WF7

> <PMID>
29162308

> <PubChem AID>


> <Patent Number>


> <Authors>
Kwon, J; Mistry, T; Ren, J; Johnson, ME; Mehboob, S

> <Institution>
Novalex Therapeutics

> <Link to Ligand in BindingDB>
http://www.bindingdb.org/bind/chemsearch/marvin/MolStructure.jsp?monomerid=50452504

> <Link to Ligand-Target Pair in BindingDB>
http://www.bindingdb.org/jsp/dbsearch/PrimarySearch_ki.jsp?energyterm=kJ/mole&tag=pol&polymerid=50004708&target=Enoyl-%5Bacyl-carrier-protein%5D+reductase+%5BNADPH%5D+FabI+%5B9-251%5D&column=ki&startPg=0&Increment=50&submit=Search

> <Link to Ligand-Target Pair in BindingDB>
http://www.bindingdb.org/jsp/dbsearch/PrimarySearch_ki.jsp?energyterm=kJ/mole&tag=r21&monomerid=50452504&enzyme=Enoyl-%5Bacyl-carrier-protein%5D+reductase+%5BNADPH%5D+FabI+%5B9-251%5D&column=ki&startPg=0&Increment=50&submit=Search

> <Ligand HET ID in PDB>


> <PDB ID(s) for Ligand-Target Complex>


> <PubChem CID of Ligand>
122243073

> <PubChem SID of Ligand>
433921360

> <ChEBI ID of Ligand>


> <ChEMBL ID of Ligand>


> <DrugBank ID of Ligand>


> <IUPHAR_GRAC ID of Ligand>


> <KEGG ID of Ligand>


> <ZINC ID of Ligand>


> <Number of Protein Chains in Target (bigger than 1 implies a multichain complex)>
1

> <BindingDB Target Chain Sequence>
YVIMGIANKRSIAFGVAKVLDQLGAKLVFTYRKERSRKELEKLLEQLNQPEAHLYQIDVQSDEEVINGFEQIGKDVGNIDGVYHSIAFANMEDLRGRFSETSREGFLLAQDISSYSLTIVAHEAKKLMPEGGSIVATTYLGGEFAVQNYNVMGVAKASLEANVKYLALDLGPDNIRVNAISAGPIRTLSAKGVGGFNTILKEIEERAPLKRNVDQVEVGKTAAYLLSDLSSGVTGENIHVDSG

> <PDB ID(s) of Target Chain>
3GNS,3GNT,3GR6,4ALI,4ALJ,4ALK,4ALL,4ALM,4ALN,4BNF,4BNG,4BNH,4BNI,4BNJ,4BNK,4BNL,4BNM,4BNN,4CUZ,4CV0,4CV1,4D41,4D42,4D43,4D44,4D45,4FS3,4NZ9,6TBB,6TBC,6YUR

> <UniProt (SwissProt) Recommended Name of Target Chain>
Enoyl-[acyl-carrier-protein] reductase [NADPH] FabI

> <UniProt (SwissProt) Entry Name of Target Chain>
FABI_STAAR

> <UniProt (SwissProt) Primary ID of Target Chain>
Q6GI75

> <UniProt (SwissProt) Secondary ID(s) of Target Chain>


> <UniProt (SwissProt) Alternative ID(s) of Target Chain>


> <UniProt (TrEMBL) Submitted Name of Target Chain>


> <UniProt (TrEMBL) Entry Name of Target Chain>


> <UniProt (TrEMBL) Primary ID of Target Chain>


> <UniProt (TrEMBL) Secondary ID(s) of Target Chain>


> <UniProt (TrEMBL) Alternative ID(s) of Target Chain>


$$$$
BindingDB_50452500_mol_1

Vconf v2.0 Academic SN VC001-00000579
 52 54  0  0  0  0  0  0  0  0999 V2000
    2.8730   -6.1830    0.0780 N   0  0  0  0  0  0  0  0  0  0  0
    1.7190   -5.3810    1.9530 N   0  0  0  0  0  0  0  0  0  0  0
    3.8360   -4.4140    1.3620 C   0  0  0  0  0  0  0  0  0  0  0
    2.7020   -4.4840    2.2010 C   0  0  0  0  0  0  0  0  0  0  0
    3.8860   -5.3060    0.2790 C   0  0  0  0  0  0  0  0  0  0  0
    1.7980   -6.2270    0.9000 C   0  0  0  0  0  0  0  0  0  0  0
    5.9560    0.7120   -0.6720 C   0  0  0  0  0  0  0  0  0  0  0
    6.8320    0.9600    0.4260 C   0  0  0  0  0  0  0  0  0  0  0
    4.8030   -3.5010    1.6370 N   0  0  0  0  0  0  0  0  0  0  0
    5.9890    1.4700   -1.7980 N   0  0  0  0  0  0  0  0  0  0  0
    2.6260   -3.6330    3.2530 N   0  0  0  0  0  0  0  0  0  0  0
    5.2420    2.4220   -3.7810 C   0  0  0  0  0  0  0  0  0  0  0
    5.1400    1.2670   -2.9250 C   0  0  1  0  0  0  0  0  0  0  0
    6.8080    0.1900    1.6260 C   0  0  0  0  0  0  0  0  0  0  0
    5.9200   -0.8330    1.7790 N   0  0  0  0  0  0  0  0  0  0  0
    4.7240   -2.6470    2.6910 C   0  0  0  0  0  0  0  0  0  0  0
    4.9260   -1.5250   -5.5210 C   0  0  0  0  0  0  0  0  0  0  0
    5.1090   -0.2100   -0.6400 O   0  0  0  0  0  0  0  0  0  0  0
    4.2530    3.0820   -4.0570 O   0  0  0  0  0  0  0  0  0  0  0
    4.1660   -2.4780   -5.5430 O   0  0  0  0  0  0  0  0  0  0  0
    4.9240   -5.3050   -0.5680 N   0  0  0  0  0  0  0  0  0  0  0
    3.5930   -2.7210    3.5260 C   0  0  0  0  0  0  0  0  0  0  0
    0.8170   -7.1040    0.6700 N   0  0  0  0  0  0  0  0  0  0  0
    5.5400   -0.0130   -3.6920 C   0  0  0  0  0  0  0  0  0  0  0
    5.8020   -1.6750    2.9200 C   0  0  0  0  0  0  0  0  0  0  0
    4.5630   -0.3110   -4.8450 C   0  0  0  0  0  0  0  0  0  0  0
    6.4080    2.7890   -4.2800 O   0  0  0  0  0  0  0  0  0  0  0
    6.0860   -1.6170   -6.1420 O   0  0  0  0  0  0  0  0  0  0  0
    7.7730    2.0150    0.3260 C   0  0  0  0  0  0  0  0  0  0  0
    7.7130    0.4940    2.6680 C   0  0  0  0  0  0  0  0  0  0  0
    8.6630    2.3060    1.3700 C   0  0  0  0  0  0  0  0  0  0  0
    8.6340    1.5440    2.5440 C   0  0  0  0  0  0  0  0  0  0  0
    6.6110    2.2120   -1.8360 H   0  0  0  0  0  0  0  0  0  0  0
    4.1060    1.1710   -2.5850 H   0  0  0  0  0  0  0  0  0  0  0
    5.3140   -1.0150    1.0450 H   0  0  0  0  0  0  0  0  0  0  0
    5.6530   -4.6790   -0.4350 H   0  0  0  0  0  0  0  0  0  0  0
    4.9430   -5.9270   -1.3110 H   0  0  0  0  0  0  0  0  0  0  0
    3.4960   -2.0960    4.3270 H   0  0  0  0  0  0  0  0  0  0  0
    0.0480   -7.1330    1.2600 H   0  0  0  0  0  0  0  0  0  0  0
    0.8760   -7.7070   -0.0860 H   0  0  0  0  0  0  0  0  0  0  0
    6.5500    0.1010   -4.0890 H   0  0  0  0  0  0  0  0  0  0  0
    5.5300   -0.8610   -3.0060 H   0  0  0  0  0  0  0  0  0  0  0
    5.5870   -1.0700    3.8030 H   0  0  0  0  0  0  0  0  0  0  0
    6.7350   -2.2190    3.0760 H   0  0  0  0  0  0  0  0  0  0  0
    3.5530   -0.4050   -4.4420 H   0  0  0  0  0  0  0  0  0  0  0
    4.5810    0.5070   -5.5660 H   0  0  0  0  0  0  0  0  0  0  0
    6.3570    3.5850   -4.8490 H   0  0  0  0  0  0  0  0  0  0  0
    6.2300   -2.4840   -6.5750 H   0  0  0  0  0  0  0  0  0  0  0
    7.8250    2.5900   -0.5150 H   0  0  0  0  0  0  0  0  0  0  0
    7.7080   -0.0490    3.5320 H   0  0  0  0  0  0  0  0  0  0  0
    9.3310    3.0710    1.2740 H   0  0  0  0  0  0  0  0  0  0  0
    9.2800    1.7520    3.3060 H   0  0  0  0  0  0  0  0  0  0  0
  1  5  1  0  0  0  0
  1  6  2  0  0  0  0
  2  4  2  0  0  0  0
  2  6  1  0  0  0  0
  3  4  1  0  0  0  0
  3  5  2  0  0  0  0
  3  9  1  0  0  0  0
  4 11  1  0  0  0  0
  5 21  1  0  0  0  0
  6 23  1  0  0  0  0
  7  8  1  0  0  0  0
  7 10  1  0  0  0  0
  7 18  2  0  0  0  0
  8 14  2  0  0  0  0
  8 29  1  0  0  0  0
  9 16  2  0  0  0  0
 10 13  1  0  0  0  0
 10 33  1  0  0  0  0
 11 22  2  0  0  0  0
 12 13  1  0  0  0  0
 12 19  2  0  0  0  0
 12 27  1  0  0  0  0
 13 24  1  0  0  0  0
 13 34  1  0  0  0  0
 14 15  1  0  0  0  0
 14 30  1  0  0  0  0
 15 25  1  0  0  0  0
 15 35  1  0  0  0  0
 16 22  1  0  0  0  0
 16 25  1  0  0  0  0
 17 20  2  0  0  0  0
 17 26  1  0  0  0  0
 17 28  1  0  0  0  0
 21 36  1  0  0  0  0
 21 37  1  0  0  0  0
 22 38  1  0  0  0  0
 23 39  1  0  0  0  0
 23 40  1  0  0  0  0
 24 26  1  0  0  0  0
 24 41  1  0  0  0  0
 24 42  1  0  0  0  0
 25 43  1  0  0  0  0
 25 44  1  0  0  0  0
 26 45  1  0  0  0  0
 26 46  1  0  0  0  0
 27 47  1  0  0  0  0
 28 48  1  0  0  0  0
 29 31  2  0  0  0  0
 29 49  1  0  0  0  0
 30 32  2  0  0  0  0
 30 50  1  0  0  0  0
 31 32  1  0  0  0  0
 31 51  1  0  0  0  0
 32 52  1  0  0  0  0
M  END
> <From>
www.bindingDB.org

> <BindingDB Reactant_set_id>
51108811

> <Ligand InChI>
InChI=1S/C22H24N2O3/c1-16(25)23-19-10-7-17(8-11-19)9-12-22(26)24-14-13-18(15-24)20-5-3-4-6-21(20)27-2/h3-12,18H,13-15H2,1-2H3,(H,23,25)/b12-9+

> <Ligand InChI Key>
RNAZYXXOZJZLCE-FMIVXFBMSA-N

> <BindingDB MonomerID>
50452500

> <BindingDB Ligand Name>
CHEMBL4213757

> <Target Name>
Enoyl-[acyl-carrier-protein] reductase [NADPH] FabI [9-251]

> <Target Source Organism According to Curator or DataSource>
Staphylococcus aureus

> <Ki (nM)>
>37100

> <IC50 (nM)>


> <Kd (nM)>


> <EC50 (nM)>


> <kon (M-1-s-1)>


> <koff (s-1)>


> <pH>


> <Temp C>


> <Curation/DataSource>
ChEMBL

> <Article DOI>
10.1016/j.bmc.2017.11.018

> <BindingDB Entry DOI>
10.7270/Q2QF8WF7

> <PMID>
29162308

> <PubChem AID>


> <Patent Number>


> <Authors>
Kwon, J; Mistry, T; Ren, J; Johnson, ME; Mehboob, S

> <Institution>
Novalex Therapeutics

> <Link to Ligand in BindingDB>
http://www.bindingdb.org/bind/chemsearch/marvin/MolStructure.jsp?monomerid=50452500

> <Link to Ligand-Target Pair in BindingDB>
http://www.bindingdb.org/jsp/dbsearch/PrimarySearch_ki.jsp?energyterm=kJ/mole&tag=pol&polymerid=50004708&target=Enoyl-%5Bacyl-carrier-protein%5D+reductase+%5BNADPH%5D+FabI+%5B9-251%5D&column=ki&startPg=0&Increment=50&submit=Search

> <Link to Ligand-Target Pair in BindingDB>
http://www.bindingdb.org/jsp/dbsearch/PrimarySearch_ki.jsp?energyterm=kJ/mole&tag=r21&monomerid=50452500&enzyme=Enoyl-%5Bacyl-carrier-protein%5D+reductase+%5BNADPH%5D+FabI+%5B9-251%5D&column=ki&startPg=0&Increment=50&submit=Search

> <Ligand HET ID in PDB>


> <PDB ID(s) for Ligand-Target Complex>


> <PubChem CID of Ligand>
119099082

> <PubChem SID of Ligand>
433921356

> <ChEBI ID of Ligand>


> <ChEMBL ID of Ligand>


> <DrugBank ID of Ligand>


> <IUPHAR_GRAC ID of Ligand>


> <KEGG ID of Ligand>


> <ZINC ID of Ligand>


> <Number of Protein Chains in Target (bigger than 1 implies a multichain complex)>
1

> <BindingDB Target Chain Sequence>
YVIMGIANKRSIAFGVAKVLDQLGAKLVFTYRKERSRKELEKLLEQLNQPEAHLYQIDVQSDEEVINGFEQIGKDVGNIDGVYHSIAFANMEDLRGRFSETSREGFLLAQDISSYSLTIVAHEAKKLMPEGGSIVATTYLGGEFAVQNYNVMGVAKASLEANVKYLALDLGPDNIRVNAISAGPIRTLSAKGVGGFNTILKEIEERAPLKRNVDQVEVGKTAAYLLSDLSSGVTGENIHVDSG

> <PDB ID(s) of Target Chain>
3GNS,3GNT,3GR6,4ALI,4ALJ,4ALK,4ALL,4ALM,4ALN,4BNF,4BNG,4BNH,4BNI,4BNJ,4BNK,4BNL,4BNM,4BNN,4CUZ,4CV0,4CV1,4D41,4D42,4D43,4D44,4D45,4FS3,4NZ9,6TBB,6TBC,6YUR

> <UniProt (SwissProt) Recommended Name of Target Chain>
Enoyl-[acyl-carrier-protein] reductase [NADPH] FabI

> <UniProt (SwissProt) Entry Name of Target Chain>
FABI_STAAR

> <UniProt (SwissProt) Primary ID of Target Chain>
Q6GI75

> <UniProt (SwissProt) Secondary ID(s) of Target Chain>


> <UniProt (SwissProt) Alternative ID(s) of Target Chain>


> <UniProt (TrEMBL) Submitted Name of Target Chain>


> <UniProt (TrEMBL) Entry Name of Target Chain>


> <UniProt (TrEMBL) Primary ID of Target Chain>


> <UniProt (TrEMBL) Secondary ID(s) of Target Chain>


> <UniProt (TrEMBL) Alternative ID(s) of Target Chain>


$$$$
BindingDB_50452505_mol_1

Vconf v2.0 Academic SN VC001-00000579
 29 30  0  0  0  0  0  0  0  0999 V2000
    3.9770   -2.3950    0.5520 C   0  0  0  0  0  0  0  0  0  0  0
    3.8970   -3.8030    0.5700 C   0  0  0  0  0  0  0  0  0  0  0
    2.7630   -1.6810    0.5150 C   0  0  0  0  0  0  0  0  0  0  0
    2.6790   -4.3950    0.5540 N   0  0  0  0  0  0  0  0  0  0  0
    1.5800   -2.3470    0.4980 N   0  0  0  0  0  0  0  0  0  0  0
    1.5250   -3.6980    0.5180 C   0  0  0  0  0  0  0  0  0  0  0
    5.1150   -1.7720    0.5660 C   0  0  0  0  0  0  0  0  0  0  0
    6.1220   -1.2240    0.5790 N   0  0  0  0  0  0  0  0  0  0  0
    4.9850   -4.6120    0.5990 N   0  0  0  0  0  0  0  0  0  0  0
    7.6770   -8.2860    1.5730 N   0  0  0  0  0  0  0  0  0  0  0
    2.7450    0.0540    0.4870 S   0  0  0  0  0  0  0  0  0  0  0
    6.1410   -6.7320    0.5880 C   0  0  0  0  0  0  0  0  0  0  0
    4.8460   -6.0320    0.6050 C   0  0  0  0  0  0  0  0  0  0  0
    6.5050   -7.6060    1.6300 C   0  0  0  0  0  0  0  0  0  0  0
    0.2560   -4.4230    0.4980 C   0  0  0  0  0  0  0  0  0  0  0
    8.5420   -8.1690    0.5340 C   0  0  0  0  0  0  0  0  0  0  0
    7.0280   -6.5920   -0.4980 C   0  0  0  0  0  0  0  0  0  0  0
    8.2340   -7.3120   -0.5340 C   0  0  0  0  0  0  0  0  0  0  0
    5.8760   -4.2230    0.6130 H   0  0  0  0  0  0  0  0  0  0  0
    1.4070    0.2960    0.4660 H   0  0  0  0  0  0  0  0  0  0  0
    4.2760   -6.3220    1.4920 H   0  0  0  0  0  0  0  0  0  0  0
    4.2810   -6.3440   -0.2770 H   0  0  0  0  0  0  0  0  0  0  0
    5.8800   -7.7390    2.4260 H   0  0  0  0  0  0  0  0  0  0  0
   -0.5820   -3.7270    0.4410 H   0  0  0  0  0  0  0  0  0  0  0
    0.2330   -5.0850   -0.3690 H   0  0  0  0  0  0  0  0  0  0  0
    0.1670   -5.0210    1.4060 H   0  0  0  0  0  0  0  0  0  0  0
    9.4100   -8.7060    0.5300 H   0  0  0  0  0  0  0  0  0  0  0
    6.7880   -5.9710   -1.2720 H   0  0  0  0  0  0  0  0  0  0  0
    8.8720   -7.2200   -1.3240 H   0  0  0  0  0  0  0  0  0  0  0
  1  2  2  0  0  0  0
  1  3  1  0  0  0  0
  1  7  1  0  0  0  0
  2  4  1  0  0  0  0
  2  9  1  0  0  0  0
  3  5  2  0  0  0  0
  3 11  1  0  0  0  0
  4  6  2  0  0  0  0
  5  6  1  0  0  0  0
  6 15  1  0  0  0  0
  7  8  3  0  0  0  0
  9 13  1  0  0  0  0
  9 19  1  0  0  0  0
 10 14  1  0  0  0  0
 10 16  2  0  0  0  0
 11 20  1  0  0  0  0
 12 13  1  0  0  0  0
 12 14  2  0  0  0  0
 12 17  1  0  0  0  0
 13 21  1  0  0  0  0
 13 22  1  0  0  0  0
 14 23  1  0  0  0  0
 15 24  1  0  0  0  0
 15 25  1  0  0  0  0
 15 26  1  0  0  0  0
 16 18  1  0  0  0  0
 16 27  1  0  0  0  0
 17 18  2  0  0  0  0
 17 28  1  0  0  0  0
 18 29  1  0  0  0  0
M  END
> <From>
www.bindingDB.org

> <BindingDB Reactant_set_id>
51108814

> <Ligand InChI>
InChI=1S/C20H22N2O2/c1-15(23)21-19-9-7-16(8-10-19)13-20(24)22-12-11-18(14-22)17-5-3-2-4-6-17/h2-10,18H,11-14H2,1H3,(H,21,23)

> <Ligand InChI Key>
DEKQULAMHDFDJQ-UHFFFAOYSA-N

> <BindingDB MonomerID>
50452505

> <BindingDB Ligand Name>
CHEMBL4214922

> <Target Name>
Enoyl-[acyl-carrier-protein] reductase [NADPH] FabI [9-251]

> <Target Source Organism According to Curator or DataSource>
Staphylococcus aureus

> <Ki (nM)>
>37100

> <IC50 (nM)>


> <Kd (nM)>


> <EC50 (nM)>


> <kon (M-1-s-1)>


> <koff (s-1)>


> <pH>


> <Temp C>


> <Curation/DataSource>
ChEMBL

> <Article DOI>
10.1016/j.bmc.2017.11.018

> <BindingDB Entry DOI>
10.7270/Q2QF8WF7

> <PMID>
29162308

> <PubChem AID>


> <Patent Number>


> <Authors>
Kwon, J; Mistry, T; Ren, J; Johnson, ME; Mehboob, S

> <Institution>
Novalex Therapeutics

> <Link to Ligand in BindingDB>
http://www.bindingdb.org/bind/chemsearch/marvin/MolStructure.jsp?monomerid=50452505

> <Link to Ligand-Target Pair in BindingDB>
http://www.bindingdb.org/jsp/dbsearch/PrimarySearch_ki.jsp?energyterm=kJ/mole&tag=pol&polymerid=50004708&target=Enoyl-%5Bacyl-carrier-protein%5D+reductase+%5BNADPH%5D+FabI+%5B9-251%5D&column=ki&startPg=0&Increment=50&submit=Search

> <Link to Ligand-Target Pair in BindingDB>
http://www.bindingdb.org/jsp/dbsearch/PrimarySearch_ki.jsp?energyterm=kJ/mole&tag=r21&monomerid=50452505&enzyme=Enoyl-%5Bacyl-carrier-protein%5D+reductase+%5BNADPH%5D+FabI+%5B9-251%5D&column=ki&startPg=0&Increment=50&submit=Search

> <Ligand HET ID in PDB>


> <PDB ID(s) for Ligand-Target Complex>


> <PubChem CID of Ligand>
122243071

> <PubChem SID of Ligand>
433921361

> <ChEBI ID of Ligand>


> <ChEMBL ID of Ligand>


> <DrugBank ID of Ligand>


> <IUPHAR_GRAC ID of Ligand>


> <KEGG ID of Ligand>


> <ZINC ID of Ligand>


> <Number of Protein Chains in Target (bigger than 1 implies a multichain complex)>
1

> <BindingDB Target Chain Sequence>
YVIMGIANKRSIAFGVAKVLDQLGAKLVFTYRKERSRKELEKLLEQLNQPEAHLYQIDVQSDEEVINGFEQIGKDVGNIDGVYHSIAFANMEDLRGRFSETSREGFLLAQDISSYSLTIVAHEAKKLMPEGGSIVATTYLGGEFAVQNYNVMGVAKASLEANVKYLALDLGPDNIRVNAISAGPIRTLSAKGVGGFNTILKEIEERAPLKRNVDQVEVGKTAAYLLSDLSSGVTGENIHVDSG

> <PDB ID(s) of Target Chain>
3GNS,3GNT,3GR6,4ALI,4ALJ,4ALK,4ALL,4ALM,4ALN,4BNF,4BNG,4BNH,4BNI,4BNJ,4BNK,4BNL,4BNM,4BNN,4CUZ,4CV0,4CV1,4D41,4D42,4D43,4D44,4D45,4FS3,4NZ9,6TBB,6TBC,6YUR

> <UniProt (SwissProt) Recommended Name of Target Chain>
Enoyl-[acyl-carrier-protein] reductase [NADPH] FabI

> <UniProt (SwissProt) Entry Name of Target Chain>
FABI_STAAR

> <UniProt (SwissProt) Primary ID of Target Chain>
Q6GI75

> <UniProt (SwissProt) Secondary ID(s) of Target Chain>


> <UniProt (SwissProt) Alternative ID(s) of Target Chain>


> <UniProt (TrEMBL) Submitted Name of Target Chain>


> <UniProt (TrEMBL) Entry Name of Target Chain>


> <UniProt (TrEMBL) Primary ID of Target Chain>


> <UniProt (TrEMBL) Secondary ID(s) of Target Chain>


> <UniProt (TrEMBL) Alternative ID(s) of Target Chain>


$$$$
BindingDB_50452503_mol_1

Vconf v2.0 Academic SN VC001-00000579
 29 30  0  0  0  0  0  0  0  0999 V2000
    3.8570   -2.7870    0.5900 C   0  0  0  0  0  0  0  0  0  0  0
    3.9440   -1.3800    0.5860 C   0  0  0  0  0  0  0  0  0  0  0
    2.6370   -3.3730    0.6350 N   0  0  0  0  0  0  0  0  0  0  0
    2.7310   -0.6630    0.6270 C   0  0  0  0  0  0  0  0  0  0  0
    1.5460   -1.3190    0.6690 N   0  0  0  0  0  0  0  0  0  0  0
    1.4860   -2.6700    0.6740 C   0  0  0  0  0  0  0  0  0  0  0
    5.0880   -0.7650    0.5450 C   0  0  0  0  0  0  0  0  0  0  0
    4.9480   -3.5940    0.5460 N   0  0  0  0  0  0  0  0  0  0  0
    6.1020   -0.2300    0.5090 N   0  0  0  0  0  0  0  0  0  0  0
    2.7060    0.6890    0.6240 O   0  0  0  0  0  0  0  0  0  0  0
    6.3720   -6.5010   -0.6090 N   0  0  0  0  0  0  0  0  0  0  0
    4.8180   -5.0120    0.5370 C   0  0  0  0  0  0  0  0  0  0  0
    6.1090   -5.7070    0.4610 C   0  0  0  0  0  0  0  0  0  0  0
    0.2190   -3.3980    0.7160 C   0  0  0  0  0  0  0  0  0  0  0
    7.5160   -7.2160   -0.7390 C   0  0  0  0  0  0  0  0  0  0  0
    7.0560   -5.6150    1.4970 C   0  0  0  0  0  0  0  0  0  0  0
    8.4890   -7.1560    0.2700 C   0  0  0  0  0  0  0  0  0  0  0
    8.2500   -6.3480    1.3940 C   0  0  0  0  0  0  0  0  0  0  0
    5.8350   -3.1970    0.5070 H   0  0  0  0  0  0  0  0  0  0  0
    1.8050    1.0740    0.6540 H   0  0  0  0  0  0  0  0  0  0  0
    4.3000   -5.3380    1.4410 H   0  0  0  0  0  0  0  0  0  0  0
    4.2170   -5.3040   -0.3260 H   0  0  0  0  0  0  0  0  0  0  0
   -0.6180   -2.7010    0.7170 H   0  0  0  0  0  0  0  0  0  0  0
    0.1490   -4.0480   -0.1580 H   0  0  0  0  0  0  0  0  0  0  0
    0.1840   -4.0080    1.6200 H   0  0  0  0  0  0  0  0  0  0  0
    7.6630   -7.8000   -1.5630 H   0  0  0  0  0  0  0  0  0  0  0
    6.8720   -5.0370    2.3180 H   0  0  0  0  0  0  0  0  0  0  0
    9.3510   -7.6950    0.1910 H   0  0  0  0  0  0  0  0  0  0  0
    8.9430   -6.2980    2.1410 H   0  0  0  0  0  0  0  0  0  0  0
  1  2  1  0  0  0  0
  1  3  2  0  0  0  0
  1  8  1  0  0  0  0
  2  4  2  0  0  0  0
  2  7  1  0  0  0  0
  3  6  1  0  0  0  0
  4  5  1  0  0  0  0
  4 10  1  0  0  0  0
  5  6  2  0  0  0  0
  6 14  1  0  0  0  0
  7  9  3  0  0  0  0
  8 12  1  0  0  0  0
  8 19  1  0  0  0  0
 10 20  1  0  0  0  0
 11 13  1  0  0  0  0
 11 15  2  0  0  0  0
 12 13  1  0  0  0  0
 12 21  1  0  0  0  0
 12 22  1  0  0  0  0
 13 16  2  0  0  0  0
 14 23  1  0  0  0  0
 14 24  1  0  0  0  0
 14 25  1  0  0  0  0
 15 17  1  0  0  0  0
 15 26  1  0  0  0  0
 16 18  1  0  0  0  0
 16 27  1  0  0  0  0
 17 18  2  0  0  0  0
 17 28  1  0  0  0  0
 18 29  1  0  0  0  0
M  END
> <From>
www.bindingDB.org

> <BindingDB Reactant_set_id>
51108815

> <Ligand InChI>
InChI=1S/C22H25NO5S/c1-15(2)29(25,26)19-6-3-16(4-7-19)11-22(24)23-10-9-18(13-23)17-5-8-20-21(12-17)28-14-27-20/h3-8,12,15,18H,9-11,13-14H2,1-2H3

> <Ligand InChI Key>
FNWIGZYZIBMZEK-UHFFFAOYSA-N

> <BindingDB MonomerID>
50452503

> <BindingDB Ligand Name>
CHEMBL4204726

> <Target Name>
Enoyl-[acyl-carrier-protein] reductase [NADPH] FabI [9-251]

> <Target Source Organism According to Curator or DataSource>
Staphylococcus aureus

> <Ki (nM)>
>37100

> <IC50 (nM)>


> <Kd (nM)>


> <EC50 (nM)>


> <kon (M-1-s-1)>


> <koff (s-1)>


> <pH>


> <Temp C>


> <Curation/DataSource>
ChEMBL

> <Article DOI>
10.1016/j.bmc.2017.11.018

> <BindingDB Entry DOI>
10.7270/Q2QF8WF7

> <PMID>
29162308

> <PubChem AID>


> <Patent Number>


> <Authors>
Kwon, J; Mistry, T; Ren, J; Johnson, ME; Mehboob, S

> <Institution>
Novalex Therapeutics

> <Link to Ligand in BindingDB>
http://www.bindingdb.org/bind/chemsearch/marvin/MolStructure.jsp?monomerid=50452503

> <Link to Ligand-Target Pair in BindingDB>
http://www.bindingdb.org/jsp/dbsearch/PrimarySearch_ki.jsp?energyterm=kJ/mole&tag=pol&polymerid=50004708&target=Enoyl-%5Bacyl-carrier-protein%5D+reductase+%5BNADPH%5D+FabI+%5B9-251%5D&column=ki&startPg=0&Increment=50&submit=Search

> <Link to Ligand-Target Pair in BindingDB>
http://www.bindingdb.org/jsp/dbsearch/PrimarySearch_ki.jsp?energyterm=kJ/mole&tag=r21&monomerid=50452503&enzyme=Enoyl-%5Bacyl-carrier-protein%5D+reductase+%5BNADPH%5D+FabI+%5B9-251%5D&column=ki&startPg=0&Increment=50&submit=Search

> <Ligand HET ID in PDB>


> <PDB ID(s) for Ligand-Target Complex>


> <PubChem CID of Ligand>
92124189

> <PubChem SID of Ligand>
433921359

> <ChEBI ID of Ligand>


> <ChEMBL ID of Ligand>


> <DrugBank ID of Ligand>


> <IUPHAR_GRAC ID of Ligand>


> <KEGG ID of Ligand>


> <ZINC ID of Ligand>


> <Number of Protein Chains in Target (bigger than 1 implies a multichain complex)>
1

> <BindingDB Target Chain Sequence>
YVIMGIANKRSIAFGVAKVLDQLGAKLVFTYRKERSRKELEKLLEQLNQPEAHLYQIDVQSDEEVINGFEQIGKDVGNIDGVYHSIAFANMEDLRGRFSETSREGFLLAQDISSYSLTIVAHEAKKLMPEGGSIVATTYLGGEFAVQNYNVMGVAKASLEANVKYLALDLGPDNIRVNAISAGPIRTLSAKGVGGFNTILKEIEERAPLKRNVDQVEVGKTAAYLLSDLSSGVTGENIHVDSG

> <PDB ID(s) of Target Chain>
3GNS,3GNT,3GR6,4ALI,4ALJ,4ALK,4ALL,4ALM,4ALN,4BNF,4BNG,4BNH,4BNI,4BNJ,4BNK,4BNL,4BNM,4BNN,4CUZ,4CV0,4CV1,4D41,4D42,4D43,4D44,4D45,4FS3,4NZ9,6TBB,6TBC,6YUR

> <UniProt (SwissProt) Recommended Name of Target Chain>
Enoyl-[acyl-carrier-protein] reductase [NADPH] FabI

> <UniProt (SwissProt) Entry Name of Target Chain>
FABI_STAAR

> <UniProt (SwissProt) Primary ID of Target Chain>
Q6GI75

> <UniProt (SwissProt) Secondary ID(s) of Target Chain>


> <UniProt (SwissProt) Alternative ID(s) of Target Chain>


> <UniProt (TrEMBL) Submitted Name of Target Chain>


> <UniProt (TrEMBL) Entry Name of Target Chain>


> <UniProt (TrEMBL) Primary ID of Target Chain>


> <UniProt (TrEMBL) Secondary ID(s) of Target Chain>


> <UniProt (TrEMBL) Alternative ID(s) of Target Chain>


$$$$
